12
 energy: -21.568773614535 gnorm: 0.000909576203 xtb: 6.2.3 (830e466)
C         1.48504091753269    1.43775419158583   -2.11592081059250
C         0.57422876785584    0.56397274486062   -1.25205518975557
C         1.22765575255656   -0.71802766541837   -0.84029836210519
O         0.86728353617493    2.62684093085804   -2.52768835213461
O         0.64276827067694    3.46680535586460   -1.39178737233352
O         2.33795694696344   -1.06206565078715   -1.12911290103591
H         0.60007472497341    4.34481047868137   -1.79133838474809
H         2.41534178504391    1.65139353530199   -1.57596816896682
H         1.72503592242096    0.93870540400984   -3.05762063417707
H         0.57297941803613   -1.35803871044373   -0.21507054139271
H        -0.35008249151507    0.33160441064609   -1.78753211096247
H         0.29061644928027    1.11573497484087   -0.35132717179556
12
Properties=species:S:1:pos:R:3 6.2.3=T gnorm:=T pbc="F F F" 0.000733705255=T energy:=T -21.650323138469=T xtb:=T 830e466=T
C       1.30209088       1.95541805      -1.57099793 
C       0.49353213       0.80291834      -0.93642294 
C       1.13977481      -0.53096309      -1.13264564 
O       1.48651652       1.77225000      -2.94086868 
O       0.62100107       3.15594520      -1.38428862 
O       2.03757080      -0.75960789      -1.89884838 
H       0.52831525       3.56198489      -2.25483427 
H       2.28244268       2.01846968      -1.05628899 
H       1.93922908       0.92610313      -3.07521518 
H       0.70851957      -1.33546225      -0.50758956 
H      -0.49584609       0.76959823      -1.40282029 
H       0.34575331       1.00283571       0.12510048 
