12
 energy: -21.568776343236 gnorm: 0.000598772000 xtb: 6.2.3 (830e466)
C         1.52267312821022    1.47673492809008   -2.05603026429438
C         0.56184008117815    0.54883989195918   -1.31085745032705
C         1.19229294987474   -0.75874970695165   -0.94589474172488
O         0.92172764610032    2.68168088831384   -2.44661742174839
O         0.61522409122139    3.46083533263043   -1.28723460969962
O         2.31671984807308   -1.08835085817662   -1.19606010559955
H         0.61465429061094    4.36087571734814   -1.63797832488936
H         2.40835218739274    1.66874654824863   -1.43836914567070
H         1.83700528832325    1.03129639749261   -3.00279298284952
H         0.50568670530444   -1.43436521694708   -0.39723039814026
H        -0.32438832024253    0.35241583829662   -1.92042575695547
H         0.21729210395325    1.03965023969585   -0.39631879810080
12
Properties=species:S:1:pos:R:3 6.2.3=T gnorm:=T 0.000652962298=T pbc="F F F" -21.512828578627=T energy:=T xtb:=T 830e466=T
C       1.34242704       1.11428401      -2.30274448 
C       0.54997055       0.24232895      -1.66755896 
C       0.92591356      -1.15886588      -1.59651542 
O       1.18449357       2.42110987      -2.48116539 
O      -0.01016785       2.93828736      -1.90733756 
O       1.92444216      -1.64188694      -2.07508880 
H       0.06124273       3.88359742      -2.10004552 
H       2.42536895       2.76732460       0.37912057 
H       2.26861101       0.80339687      -2.77285747 
H       0.20140663      -1.78732009      -1.04482948 
H      -0.36838564       0.56239758      -1.20397191 
H       1.88375728       3.19495625       0.73718442 
