12
 energy: -21.566581571505 gnorm: 0.000487753542 xtb: 6.2.3 (830e466)
C         1.30531343899605    1.37421185908055   -2.21596526770167
C         0.70694647869710    0.65866058716692   -1.00065129957700
C         1.18247970237457   -0.75759494883308   -0.87881022320687
O         0.67627051476128    2.59488674001206   -2.49371092660887
O         0.96281621661923    3.52739262515524   -1.44913551764766
O         1.47910507754581   -1.30505897866195    0.14336089350211
H         0.78347803604367    4.37499961372913   -1.87629882649435
H         2.38224700996123    1.52804065897348   -2.07237843544612
H         1.13718161295567    0.79951929531144   -3.13160506712760
H         1.22594346732778   -1.29399774447854   -1.84904776444601
H        -0.38048599074086    0.62502136106778   -1.12399649842734
H         0.92780443545850    1.21341893147690   -0.08766106681864
12
Properties=species:S:1:pos:R:3 6.2.3=T gnorm:=T pbc="F F F" -21.513250490494=T energy:=T 0.000858855231=T xtb:=T 830e466=T
C       0.05115238       1.43552669      -2.38127870 
C      -0.39178056       1.11247179      -1.18204134 
C       2.44481295      -0.28331848      -0.93831915 
O       1.06597920       2.28014471      -2.70841552 
O       1.72481665       2.84832136      -1.58733197 
O       2.10663572      -1.06670628      -0.10228976 
H       1.66840922       3.80069672      -1.74963276 
H       2.81290575       0.72653501      -0.70035824 
H      -0.34958661       1.05742930      -3.31187613 
H       2.41543101      -0.51714579      -2.01650328 
H      -1.20735948       0.42600538      -1.06864251 
H       0.04768376       1.51953960      -0.28921063 
