12
 energy: -21.567260409448 gnorm: 0.000452421729 xtb: 6.2.3 (830e466)
C         1.40754298452841    1.48720774733441   -2.16388314915376
C         1.16089821961044    0.68753175372630   -0.87942766325490
C         1.16168163769051   -0.79046618735163   -1.11975694863163
O         1.28813634267896    2.86862130269317   -1.97182086994571
O        -0.08004582822375    3.19131085348195   -1.70521054867597
O         1.68303615100595   -1.60716436218065   -0.41648192851427
H        -0.05395022251409    4.15559935695137   -1.66263830656717
H         2.43872727970368    1.37447720358780   -2.50758185999387
H         0.71938227674793    1.15613697576757   -2.95284444811410
H         0.60520445052584   -1.08982099373433   -2.03080941720012
H         0.16519501341334    0.95765221867261   -0.51158606095742
H         1.89308169483281    0.94861413105142   -0.11383879899101
12
Properties=species:S:1:pos:R:3 0.000560636075=T 6.2.3=T gnorm:=T pbc="F F F" energy:=T xtb:=T -21.649965387091=T 830e466=T
C       0.84506077       1.68476492      -2.04269658 
C       0.72367274       0.79427043      -0.79979023 
C       1.25406822      -0.58788028      -1.05656076 
O       2.20801932       1.80142360      -2.33143231 
O       0.24944311       2.93174162      -1.86267330 
O       1.91273627      -1.22575051      -0.28977593 
H       0.67165008       3.37798184      -1.11697176 
H       2.32692268       2.37083174      -3.10086640 
H       0.29979705       1.23230613      -2.88698775 
H       0.96404746      -0.99397726      -2.04515144 
H      -0.33384311       0.71189303      -0.53721491 
H       1.26731539       1.24209474       0.03424137 
