12
 energy: -21.569103247352 gnorm: 0.000385558830 xtb: 6.2.3 (830e466)
C         0.65113172778836    1.17116804652451   -2.59657840188420
C         0.37491263914941    0.36705773641157   -1.32031034269177
C         1.56853039899529    0.41533814283399   -0.40163871229879
O         0.86270506652774    2.53136006562385   -2.32641827441791
O         2.06434509642676    2.67595513109030   -1.57908866276280
O         1.53342131827873    0.74459087562533    0.75046058059885
H         1.83314692029460    3.32162677894378   -0.89681570772085
H         1.51502661725579    0.75459777698506   -3.12964892187082
H        -0.21993186757423    1.17716583742936   -3.25506018473821
H         2.51014089036616    0.09032767218405   -0.88244067690063
H        -0.50004718145683    0.76383356668778   -0.80266746576284
H         0.19562837394809   -0.67340163033950   -1.59559322955009
12
Properties=species:S:1:pos:R:3 6.2.3=T gnorm:=T pbc="F F F" -21.629659838922=T energy:=T 0.000812820245=T 830e466=T xtb:=T
C       0.83745832       1.15172422      -2.46691995 
C       0.97559251       1.06324276      -0.92758576 
C       2.05246643       0.04990291      -0.59408902 
O      -0.03761351       2.18963287      -2.81951562 
O       1.26732838       2.31992015      -0.39018245 
O       3.14708470       0.29640901      -0.19009117 
H       1.02129996       2.99220864      -1.04193348 
H       1.80451853       1.42274589      -2.89778403 
H       0.51598833       0.18698095      -2.87654579 
H       1.71690049      -0.99185567      -0.78432611 
H      -0.93353544       1.96882672      -2.53807731 
H       0.02152129       0.68988156      -0.50874931 
