12
 energy: -21.567392015640 gnorm: 0.000169923121 xtb: 6.2.3 (830e466)
C         0.85291039526253    1.31765579043484   -2.57755766866931
C         0.42185291718649    0.27695145050402   -1.53744107637511
C         1.40497717616308    0.30368196637927   -0.39001190931816
O         0.65091769810392    2.63135719473298   -2.11327785496505
O         1.30950408768491    2.83328026853317   -0.88219210387586
O         2.58824937280025    0.15299199893497   -0.52027863967862
H         2.19811797572388    3.14956478969413   -1.11184040461791
H         1.90770981899018    1.15261898813654   -2.84033542813499
H         0.23470382784508    1.27386665285233   -3.47589531267033
H         0.95387952372001    0.46448145706588    0.60441369476968
H         0.45323559009738   -0.71007839891746   -2.00075622988042
H        -0.58695838357778    0.49323784164932   -1.19062706658391
12
Properties=species:S:1:pos:R:3 830e466=T 6.2.3=T gnorm:=T pbc="F F F" energy:=T xtb:=T 0.000823064329=T -21.604374768583=T
C       0.65504980       1.31065230      -2.77048642 
C       0.51031927       0.33780447      -1.60124634 
C       1.23265943       1.16040892      -0.53197160 
O       0.52848402       2.59127199      -2.19707174 
O       0.94641567       2.49558066      -0.82489097 
O       2.59867737       0.88137446      -0.60252674 
H       3.08625112       1.57366935      -0.14092064 
H       1.63913254       1.19465660      -3.24348087 
H      -0.13584393       1.22705478      -3.51556633 
H       0.85490572       0.98791051       0.48822252 
H       1.00609111      -0.61264677      -1.76767831 
H      -0.53304212       0.19187275      -1.32818257 
