12
 energy: -21.569103762058 gnorm: 0.000670183238 xtb: 6.2.3 (830e466)
C         0.49798055060312    1.41671642744132   -2.48645783722743
C         0.26132400733325    0.50144912338401   -1.27911781370265
C         1.57115891147822    0.15691832012452   -0.61851715612336
O         1.06160667841734    2.64552145701718   -2.11234213151160
O         2.36827417223274    2.42103214186487   -1.59731985020738
O         1.80755307647461    0.29591533236903    0.54862438861218
H         2.40654573196641    2.98968868268798   -0.81564844562995
H         1.13932078661112    0.91646670033619   -3.22309429933092
H        -0.44541025141275    1.70448833511863   -2.95512099739761
H         2.31723224081029   -0.27231781589221   -1.31354230130472
H        -0.20080178380299   -0.42356694518177   -1.62731764537974
H        -0.39587412071122    0.98738824073042   -0.55595591079685
12
Properties=species:S:1:pos:R:3 0.000954987364=T 6.2.3=T gnorm:=T -21.513680355560=T pbc="F F F" energy:=T xtb:=T 830e466=T
C       0.91576499       1.53087822      -2.22590869 
C       0.63600238       0.89095340      -0.88554073 
C       1.58415544       0.52539496      -0.08138677 
O       1.03895790       2.93034640      -2.15415329 
O       2.28089711       3.26061984      -1.53288090 
O       2.43482560       0.14274890       0.60912424 
H       2.14908454       4.18512168      -1.28553269 
H       1.82075811       1.10547561      -2.67446392 
H       0.06542997       1.39118217      -2.89676493 
H      -0.22437302      -2.08577059      -2.36027247 
H       0.06598413      -1.44493766      -2.02200658 
H      -0.37857715       0.90768706      -0.52602327 
