12
 energy: -21.569100364323 gnorm: 0.000725382920 xtb: 6.2.3 (830e466)
C         0.76688054187508    1.11572082857010   -2.63096638517403
C         0.25588167699521    0.48870279662088   -1.32808133098845
C         1.35404875096764    0.45702644139086   -0.29665109964319
O         1.15478034711282    2.45177168833075   -2.45464177933488
O         2.28826874609199    2.49781779420682   -1.59569684720373
O         1.26126595984654    0.89225641365604    0.81610705191923
H         2.10383408479995    3.25011444528908   -1.01590065528668
H         1.60279973830972    0.52947112264826   -3.03318443392417
H        -0.02883499552510    1.18105615388495   -3.37590711995844
H         2.27632724535776   -0.04235383109229   -0.64788480643176
H        -0.05376685116943   -0.53752399002184   -1.53231992246547
H        -0.59240524466215    1.05554013651641   -0.94057267150846
12
Properties=species:S:1:pos:R:3 6.2.3=T gnorm:=T pbc="F F F" 0.000400674761=T -21.522099687789=T energy:=T xtb:=T 830e466=T
C       0.73285254       1.30877953      -2.71514215 
C       0.51647297       0.48879953      -1.44261272 
C       1.67363058       0.74639961      -0.47662142 
O       1.07744825       2.66383119      -2.39845238 
O       0.96248497       2.89070004      -1.02664688 
O       1.93600357       2.15053548      -0.35510201 
H       2.59838027       0.29318748      -0.85122213 
H       1.57079975       0.90733583      -3.29615122 
H      -0.16986069       1.31737562      -3.33534442 
H       1.45015339       0.34887960       0.51919396 
H       0.46166995      -0.57000012      -1.68557966 
H      -0.42095557       0.79377621      -0.97201898 
