12
 energy: -21.567256071397 gnorm: 0.000333693055 xtb: 6.2.3 (830e466)
C         1.58495286953248    1.45725353872411   -2.04485206927428
C         0.96791436431682    0.68744850116775   -0.87132013570905
C         0.94840605936396   -0.79085015048776   -1.10830386958596
O         1.50421081211267    2.84535765025461   -1.88274470787935
O         0.13589692771803    3.25295528406056   -1.97809896596289
O         1.23445810164200   -1.62642050801670   -0.29985798271386
H         0.20794473204500    4.21289643647524   -1.90667080767389
H         2.66102368224027    1.27927916321505   -2.11196286550578
H         1.10415931539911    1.16015032758891   -2.98618876971926
H         0.62153025879624   -1.07073037082302   -2.13048047508002
H         1.49073142504974    0.91591703735768    0.05856565671182
H        -0.07201854821633    1.01684309048358   -0.77379500760743
12
Properties=species:S:1:pos:R:3 6.2.3=T gnorm:=T pbc="F F F" -21.540051587193=T 0.000565420025=T energy:=T xtb:=T 830e466=T
C       1.43780847       1.32020803      -3.17063327 
C       0.42317272       0.27317294       0.36039378 
C       1.35473778      -0.54724300       0.02189281 
O       1.13935650       2.67447406      -2.97235782 
O       0.64208240       2.85807741      -1.64288987 
O       2.20361375      -1.27396350      -0.30528020 
H       0.57330287       3.81924646      -1.58411031 
H       2.21053894       0.97473208      -2.47838880 
H       1.80708687       1.27987223      -4.19333167 
H       0.54614344       0.69568786      -3.06776464 
H      -0.27467609       0.04937746       1.14142486 
H       0.32604235       1.21645797      -0.14466487 
