12
 energy: -21.567865413830 gnorm: 0.000452840708 xtb: 6.2.3 (830e466)
C         1.86946479487728    1.61464883992584   -1.39927178506716
C         0.92558739666352    0.62610412684652   -0.70463598382298
C         0.63633573906585   -0.57334711299680   -1.56010125631181
O         1.33047174719223    2.16100065953140   -2.57208666012707
O         0.23082892074670    3.01235936104643   -2.23700083432284
O         0.53297931813751   -1.69827357232724   -1.16093893690075
H         0.12518740493683    3.53489384734108   -3.04176661924781
H         2.14192468592753    2.41580568500289   -0.70082601292023
H         2.77613983909560    1.11635100152447   -1.75184677241165
H         0.51266164699482   -0.32616869578961   -2.63173274267104
H         1.33369109414976    0.31762315943849    0.25784609912212
H        -0.02636258778763    1.13849270045656   -0.53343849531884
12
Properties=species:S:1:pos:R:3 -21.536394548835=T 6.2.3=T gnorm:=T pbc="F F F" 0.000817001658=T energy:=T xtb:=T 830e466=T
C       2.36033424       2.25481160      -0.58835603 
C       1.28634952       2.45646783       0.15407697 
C       0.24412935      -0.92984685      -3.27468346 
O       0.74134883      -0.05124036      -2.39936412 
O      -0.06857800       1.09654591      -2.26572173 
O       0.79631956      -1.95516050      -3.50964879 
H       0.42212009       1.62029004      -1.59224345 
H       2.74465407       3.01158945      -1.25349706 
H       2.90646259       1.32595150      -0.56184541 
H      -0.70735273      -0.58808502      -3.72068305 
H       0.91487363       1.70685692       0.83477287 
H       0.74824885       3.39130947       0.14139327 
