12
 energy: -21.567261459433 gnorm: 0.000658878314 xtb: 6.2.3 (830e466)
C         1.23256112182665    1.34989568709497   -2.29265817682212
C         0.59982646372227    0.62542194512275   -1.09879156309565
C         1.24510113035979   -0.69871947399274   -0.83008638446927
O         0.72834879886836    2.64427197367266   -2.46762999208569
O         1.15047479798955    3.46778092964713   -1.37631570058532
O         0.66420091114356   -1.71571560055725   -0.58229156091810
H         0.82919137133198    4.33776200963386   -1.64617180063718
H         2.32434336155258    1.38273893636829   -2.17946488964668
H         0.97717084286410    0.85795718905118   -3.23451511549276
H         2.35321250528619   -0.66613000172573   -0.86575493579744
H        -0.47387931379558    0.50136698166239   -1.24672632841592
H         0.75846800885056    1.25296942402249   -0.21539355203388
12
Properties=species:S:1:pos:R:3 -21.527981017994=T gnorm:=T 0.000676669194=T pbc="F F F" energy:=T xtb:=T 6.2.3=T 830e466=T
C       2.64738423       0.25181341      -2.78531482 
C       1.67058907       0.66906245      -1.98599823 
C       0.92627852      -0.25705781      -1.13978019 
O      -0.91337542       2.70274796      -0.20232533 
O       0.07849917       3.34452773      -0.99604877 
O       0.02456164       0.05520087      -0.39763120 
H      -0.17465186       4.27198945      -0.91286373 
H       3.19949015       0.92919809      -3.41419672 
H       2.92589934      -0.78914398      -2.83815011 
H       1.24824044      -1.31198282      -1.21810039 
H      -0.62655556       1.76315199      -0.22004525 
H       1.38266028       1.71009267      -1.92534525 
