12
 energy: -21.569102579994 gnorm: 0.000232375500 xtb: 6.2.3 (830e466)
C         1.53290817221641    1.60406636768970   -2.42764897589681
C         1.60369857590163    0.29132759462559   -1.63774815123437
C         0.32571375582687    0.07328126634754   -0.86961759222876
O         1.40197945564963    2.71819834256989   -1.58562515236587
O         0.14400773398646    2.65859626376948   -0.92512322528459
O         0.26256629243584   -0.14486748791562    0.30735928347783
H         0.35537938821768    2.88415982168762   -0.00813005088953
H         0.70239420521082    1.57286372674922   -3.14386289757728
H         2.46818929128510    1.79730089529270   -2.95687733949729
H        -0.58150038429732    0.10887208350077   -1.50133652119262
H         1.72635463486657   -0.53324515938038   -2.34153853315326
H         2.44730887870031    0.30905628506344   -0.94566084415753
12
Properties=species:S:1:pos:R:3 6.2.3=T gnorm:=T pbc="F F F" -21.563364760628=T energy:=T 0.000447872067=T xtb:=T 830e466=T
C       2.02588697       1.08139706      -2.31383980 
C       0.69672237       0.98711745      -1.55398028 
C       0.56359357      -0.37400135      -0.90307933 
O       0.57754383       1.96335587      -0.55169241 
O       0.38146071       3.23851877      -1.16539622 
O       0.35018531      -0.59801835       0.24896457 
H       0.20067787       3.79832870      -0.39946221 
H       2.10931633       2.07060635      -2.75630971 
H       2.06482258       0.33325009      -3.09983565 
H       0.70019059      -1.18654192      -1.64556920 
H      -0.13707836       1.09319878      -2.26831173 
H       2.85567821       0.93239854      -1.62729803 
