  48
        -65.77215995
 Si        -2.7973165470       -1.3136950816        0.6290354885
 C         -1.7142626607       -1.9530557055        2.0619592467
 H         -2.3140990700       -2.4300038068        2.8305797777
 H         -1.1586857128       -1.1464111005        2.5324257773
 H         -0.9963275266       -2.6874638664        1.7062482723
 C         -4.1299024699       -0.1174580320        1.2815229494
 H         -3.6873429902        0.7027375754        1.8394282149
 H         -4.8297303755       -0.6248669685        1.9376166649
 H         -4.7011431463        0.3130075441        0.4633761335
 C         -3.5171846601       -2.7197321253       -0.4174102488
 O          0.0875895684       -1.3675821038       -2.2494422871
 H         -4.2485541257       -2.3508266371       -1.1294212983
 H         -4.0067189762       -3.4609078755        0.2050836325
 H         -2.7345861504       -3.2146242091       -0.9835602066
 C          0.5889134088       -0.3044159281       -1.9404327861
 C          2.0992079108       -0.0891347294       -2.0728474761
 H          2.4918559047       -1.0217924806       -2.4812863249
 H          2.2466400631        0.6781046619       -2.8354671414
 C         -0.1130190673        0.8051195061       -1.3217803717
 C         -1.0527390447        0.4691354621       -0.3806845650
 O         -1.8558655392       -0.5489370318       -0.5176628593
 C          0.6716175450        2.0663702269       -1.0066039285
 C          2.1179128900        0.6578800344        0.4326967781
 C          2.9288370748        0.2825452453       -0.7947454685
 C          2.4249136541       -0.1006334498        1.6861554962
 O         -1.1521741677        1.1036899594        0.8087133834
 C          3.8665495442       -0.8749554669       -0.4332735622
 C          2.2812899236       -1.6012120676        1.4107235779
 H          1.7445320518        0.1933741991        2.4863258245
 H          3.4420205884        0.1192812234        2.0212251763
 C          3.0844134497       -2.0374754785        0.1727537103
 H          4.6213058375       -0.5263899795        0.2743951320
 H          4.3966448352       -1.2127816377       -1.3258960465
 H          1.2239609432       -1.8172029360        1.2513494060
 H          2.6025445474       -2.1561114999        2.2940592337
 H          3.7788641658       -2.8378985165        0.4336742776
 H          2.4007812137       -2.4302754796       -0.5806495622
 C         -0.2086925783        3.2953362276       -0.7356756511
 C          1.1569444617        1.5724595319        0.3279106027
 H          1.4363598382        2.2720968246       -1.7472390701
 C         -0.0169411058        1.9204273212        1.1987143021
 C         -0.3310197900        3.3584799139        0.7945271967
 H          0.4129269609        4.0291045626        1.2248948229
 H         -1.3210901176        3.6627649199        1.1290534454
 H         -1.1872364454        3.1715126603       -1.2004916751
 H          0.2447208008        4.2009850132       -1.1364803295
 H          0.1005809884        1.7653356973        2.2716718193
 H          3.5499778739        1.1474503614       -1.0619252536
