  48
        -65.77205925
 Si        -3.0881335762       -0.1582967438        0.7158952224
 C         -3.6354941428        1.0853281597        2.0532620549
 H         -4.2297236240        1.8858264161        1.6214895246
 H         -2.7799857012        1.5434204218        2.5419462838
 H         -4.2383626548        0.6068282681        2.8182903690
 C         -4.5263215213       -0.8290527134       -0.3168259462
 H         -5.1232779692       -0.0258567593       -0.7374877230
 H         -5.1826275988       -1.4523735206        0.2808919550
 H         -4.1483524580       -1.4248575302       -1.1414530747
 C         -1.9958079271       -1.5208206684        1.4759779975
 O         -1.1072084980       -1.3085975649       -1.9892436361
 H         -2.5577644624       -2.1863361531        2.1231250975
 H         -1.1863201042       -1.0942169749        2.0633394471
 H         -1.5548504145       -2.1188217429        0.6830106144
 C         -0.0989202398       -0.6393817134       -1.8572983150
 C          1.2785555947       -1.2916662424       -2.0253302742
 H          1.0716408305       -2.3463056547       -2.2187241178
 H          1.7145997681       -0.8780064232       -2.9370933810
 C         -0.0642595026        0.7402104381       -1.4182126134
 C         -0.9737778828        1.0576714138       -0.4391626044
 O         -2.2026083443        0.6244926050       -0.4629104725
 C          1.2819959557        1.4244623067       -1.2767944631
 C          1.9063740264       -0.3549903333        0.3253055279
 C          2.3256194976       -1.1975096048       -0.8628686014
 C          1.9457781775       -1.0228804249        1.6631436264
 O         -0.6407257039        1.7454699821        0.6746449337
 C          2.6950192569       -2.6028671336       -0.3828285410
 C          3.3159522331       -1.6638352408        1.9030824118
 H          1.1740868017       -1.7963984173        1.6957300992
 H          1.7305434088       -0.3046030989        2.4555723906
 C          3.7536943260       -2.5421180234        0.7170978140
 H          3.0870576246       -3.1826636660       -1.2210881624
 H          1.8022845673       -3.1132154241       -0.0182944525
 H          3.2737304951       -2.2544567615        2.8195466707
 H          4.0460991488       -0.8682173352        2.0618704937
 H          4.6746629035       -2.1434492840        0.2866879630
 H          3.9686964664       -3.5559941899        1.0579325989
 C          1.1870315010        2.9532138256       -1.1689437339
 C          1.5404017753        0.9061440152        0.1111712478
 H          1.9823445070        1.1112703180       -2.0439820716
 C          0.7780256800        1.9034439484        0.9344593287
 C          1.2097328043        3.2422167165        0.3404393705
 H          2.2160510488        3.4846452400        0.6825776717
 H          0.5330316430        4.0444783976        0.6284616135
 H          0.2606625150        3.3086199538       -1.6208974243
 H          2.0198726215        3.4363848961       -1.6783217944
 H          0.8829246176        1.8306615618        2.0174640508
 H          3.2340059105       -0.7435966873       -1.2798453973
