  48
        -65.77201389
 Si        -2.7779865628       -1.3730662465        0.6025793052
 C         -1.5149243265       -2.2995773909        1.6872857078
 H         -2.0022377113       -2.9595774233        2.3977916007
 H         -0.8911241780       -1.6113043613        2.2519041122
 H         -0.8602788499       -2.9076921248        1.0687372617
 C         -3.9065803972       -0.2747793305        1.6763548684
 H         -4.5668877289        0.3286207155        1.0593432985
 H         -3.3287920586        0.4050873249        2.2956769402
 H         -4.5293928411       -0.8739717004        2.3329350576
 C         -3.7576408612       -2.5269615716       -0.5372722309
 O          0.0046653771       -1.4222025592       -2.1390517646
 H         -4.5396594025       -1.9940278233       -1.0692981496
 H         -4.2271352299       -3.3268267083        0.0251684128
 H         -3.1032028307       -2.9730613455       -1.2792237684
 C          0.5389350514       -0.3642506494       -1.8655091111
 C          2.0635134991       -0.2330019294       -1.9665614732
 H          2.4160914453       -1.2389554561       -2.1991123933
 H          2.2638899976        0.3865852940       -2.8439434153
 C         -0.1427288325        0.7944179338       -1.3206367971
 C         -1.1165546831        0.5155448570       -0.3934359680
 O         -1.9570899471       -0.4701074974       -0.5352138925
 C          0.6616154393        2.0506796178       -1.0381727556
 C          2.0676883003        0.6843477783        0.4664084753
 C          2.8882082539        0.3223541013       -0.7555767096
 C          2.3207925913       -0.1192310399        1.7032355821
 O         -1.2164169770        1.1757119803        0.7807111999
 C          3.9926363855       -0.6607818608       -0.3571969994
 C          2.2966716739       -1.5921949104        1.2880494826
 H          1.5490067552        0.0785579365        2.4485426546
 H          3.2882182551        0.1282337698        2.1479225235
 C          3.4506317809       -1.9171986411        0.3303370268
 H          4.6755372099       -0.1446432377        0.3214281090
 H          4.5707346177       -0.9437830141       -1.2389860356
 H          1.3446542626       -1.7828685739        0.7890118934
 H          2.3440991562       -2.2322199577        2.1704655427
 H          4.2701066242       -2.3919545095        0.8738784391
 H          3.1022187206       -2.6310560218       -0.4167264944
 C         -0.2007496531        3.3032867124       -0.8272945423
 C          1.1100801651        1.5965376778        0.3234746570
 H          1.4393860974        2.2076103076       -1.7781836596
 C         -0.0753024976        1.9874329148        1.1582020317
 C         -0.3591242549        3.4157111482        0.6973622851
 H          0.3830186558        4.0906189723        1.1240467016
 H         -1.3527853527        3.7432075895        0.9974495484
 H         -1.1696523893        3.1843331802       -1.3130675203
 H          0.2806789992        4.1874643201       -1.2431386238
 H          0.0245079290        1.8694599473        2.2377353424
 H          3.3825722219        1.2397069287       -1.0994464134
