  48
        -65.77154250
 Si        -2.8562894301       -0.4461471253        0.7734071936
 C         -4.6402202845       -0.0026703783        0.2965339848
 H         -4.8426426872        1.0573797280        0.4188765302
 H         -5.3517682570       -0.5473342175        0.9081634928
 H         -4.8330262812       -0.2563163021       -0.7411459184
 C         -2.4854675753       -2.3004082640        0.5521519767
 H         -3.3710938382       -2.9027714780        0.7281768619
 H         -1.7131468266       -2.6573785333        1.2286853350
 H         -2.1474440886       -2.4869571709       -0.4631460592
 C         -2.4307891861        0.1381884957        2.5384217221
 O         -0.6761113758       -1.3816379141       -2.0281436135
 H         -2.5728943835        1.2100714891        2.6422191922
 H         -1.3955430203       -0.0750357350        2.7924299063
 H         -3.0560679977       -0.3523208615        3.2780261109
 C          0.2341523018       -0.5873286473       -1.8788759624
 C          1.6885359868       -1.0308266286       -2.0502205103
 H          1.6424618734       -2.0753131128       -2.3638391406
 H          2.1052104641       -0.4669521452       -2.8864310556
 C          0.0879265270        0.7780711483       -1.4177506994
 C         -0.8279715154        0.9760625430       -0.4144826128
 O         -1.9851905410        0.3760455660       -0.3846271768
 C          1.3373411740        1.6334603641       -1.3098749893
 C          2.1833736306       -0.0408134414        0.3230390493
 C          2.6518476116       -0.9294458206       -0.8168912613
 C          2.2791542622       -0.6311572190        1.6966023602
 O         -0.5691942036        1.7443567688        0.6658652437
 C          2.9126184857       -2.3361891680       -0.2606348700
 C          1.4675631087       -1.9307928785        1.7697649564
 H          1.9129309389        0.0747435979        2.4425796534
 H          3.3265708968       -0.8393611213        1.9311869306
 C          1.6995156567       -2.8126482271        0.5324769420
 H          3.7971062025       -2.3294085679        0.3790845970
 H          3.1170623595       -3.0255099726       -1.0816323165
 H          0.4084040774       -1.6779276820        1.8438258424
 H          1.7438346119       -2.4654919905        2.6808125382
 H          1.8381436047       -3.8526718224        0.8318148574
 H          0.8247246770       -2.7712957548       -0.1176868147
 C          1.0509052877        3.1395891895       -1.2201300543
 C          1.6843063250        1.1682073202        0.0769906732
 H          2.0628058284        1.4079035501       -2.0832892447
 C          0.8222649188        2.0821723363        0.9014896926
 C          1.0748775142        3.4541258244        0.2832011887
 H          2.0524813899        3.8207322413        0.5968570264
 H          0.3130882035        4.1730823431        0.5784872946
 H          0.0752177285        3.3659269489       -1.6508584649
 H          1.8013874269        3.7159970537       -1.7596141196
 H          0.9500723048        2.0427906649        1.9834763992
 H          3.6024476281       -0.5290104897       -1.1928071258
