  48
        -65.77137621
 Si        -2.8643311084       -0.7050096247        0.6004255901
 C         -2.4610493767       -2.5390444572        0.2873636822
 H         -3.3609003111       -3.1458829608        0.2883907885
 H         -1.7927037779       -2.9525215159        1.0382488219
 H         -1.9812920368       -2.6495926899       -0.6808178776
 C         -2.4469501749       -0.2043131019        2.3929007958
 H         -1.4032424149       -0.3976617334        2.6275728535
 H         -3.0494325570       -0.7585621431        3.1059888821
 H         -2.6257336875        0.8539981509        2.5593946619
 C         -4.6562325410       -0.2598364344        0.1516483856
 O         -0.4021092358       -1.4490422365       -2.0302221173
 H         -4.8518545575       -0.4661999049       -0.8961124827
 H         -4.8692098989        0.7911683127        0.3248234638
 H         -5.3593644670       -0.8402676070        0.7397290589
 C          0.4156558689       -0.5703305998       -1.8286909356
 C          1.9123578262       -0.8796092068       -1.8940708411
 H          1.9808634806       -1.9395026417       -2.1444515044
 H          2.3170401264       -0.3254018186       -2.7432529703
 C          0.1040812372        0.7788863104       -1.4007360278
 C         -0.9027134254        0.8880175217       -0.4733589867
 O         -1.9871672419        0.1661412988       -0.5184264617
 C          1.2512699222        1.7569658778       -1.2114805796
 C          2.1294624611        0.1765232263        0.4859529316
 C          2.7971513661       -0.6083450090       -0.6282209655
 C          2.0909300480       -0.4838410821        1.8292762422
 O         -0.8095707925        1.6873324519        0.6110786712
 C          3.3151076109       -1.9341410379       -0.0610201589
 C          1.4405551992       -1.8594979406        1.6529695748
 H          1.5093305603        0.1147335269        2.5314585758
 H          3.0968079597       -0.5948422732        2.2413060711
 C          2.2028082925       -2.7209168441        0.6313212396
 H          4.1183085177       -1.7291215233        0.6496267174
 H          3.7454246751       -2.5365718267       -0.8634523071
 H          0.4167083121       -1.7041506478        1.3057702082
 H          1.3898647856       -2.3643654716        2.6193581706
 H          2.6431619872       -3.5912852089        1.1212565252
 H          1.5030450082       -3.0883111175       -0.1197826061
 C          0.8118447194        3.2271045582       -1.1586572104
 C          1.5308318365        1.3309772926        0.2035506834
 H          2.0496027821        1.5973957992       -1.9279301285
 C          0.5205408577        2.1553484073        0.9498207313
 C          0.6890764158        3.5444201246        0.3395200721
 H          1.6002347047        4.0032552248        0.7238451034
 H         -0.1581310412        4.1878776186        0.5688979535
 H         -0.1452902825        3.3555142364       -1.6647025327
 H          1.5414698147        3.8740010624       -1.6441195418
 H          0.5705317620        2.1303937822        2.0387543026
 H          3.6654884330       -0.0295803665       -0.9686755928
