  48
        -65.77132199
 Si        -2.8293763871       -0.6761132917        0.7000839987
 C         -2.8433148272       -0.0763686450        2.5096073050
 H         -3.2527154432        0.9271840582        2.5838562569
 H         -1.8417163093       -0.0465051949        2.9296413812
 H         -3.4454134489       -0.7249248302        3.1381427378
 C         -4.5573156516       -0.6666904093       -0.0802192781
 H         -5.2033133814       -1.3953343381        0.3978856638
 H         -4.4990117922       -0.9135829204       -1.1353889771
 H         -5.0346935514        0.3048061453        0.0044068929
 C         -1.9784825511       -2.3733404047        0.5503502873
 O         -0.7414786115       -0.9350896733       -2.3993248255
 H         -2.6277373501       -3.1785013676        0.8792261840
 H         -1.0677977635       -2.4296051393        1.1416925601
 H         -1.7145256750       -2.5590697234       -0.4873934065
 C          0.1451224652       -0.1636519376       -2.0874835744
 C          1.6202674657       -0.5111327408       -2.3248131695
 H          1.6326596754       -1.3844724030       -2.9807612586
 H          2.1226587207        0.2941188492       -2.8566531798
 C         -0.0266114595        1.0530751977       -1.3178577763
 C         -0.8881487029        1.0105788286       -0.2525969310
 O         -2.0377281259        0.3928453079       -0.2982936199
 C          1.1977746957        1.9053516741       -1.0693292497
 C          2.1706853606       -0.0367700738        0.2072017825
 C          2.3879634115       -0.8986194691       -1.0284180492
 C          2.6491209802       -0.6305658639        1.5061916428
 O         -0.5826346388        1.5410869734        0.9549046867
 C          1.9407542627       -2.3408079913       -0.7054272426
 C          2.1419040372       -2.0467372128        1.7502748251
 H          2.3729052007        0.0199487327        2.3363636652
 H          3.7443411744       -0.6615408574        1.4668981458
 C          2.5404474712       -2.9154284798        0.5689086163
 H          2.2091050873       -2.9807421852       -1.5486348853
 H          0.8521572906       -2.3464307406       -0.6220427041
 H          1.0544454885       -2.0336887702        1.8508080863
 H          2.5631844623       -2.4361813282        2.6794344959
 H          3.6300561615       -2.9466380673        0.4884004174
 H          2.1840865452       -3.9379760027        0.7086959403
 C          0.8697780791        3.3532604101       -0.6673784452
 C          1.6433084403        1.1889659001        0.1771398949
 H          1.9005460721        1.8904393867       -1.8927273346
 C          0.8080732723        1.8998181030        1.2053718987
 C          0.9710963728        3.3745569463        0.8638592926
 H          1.9506628501        3.7196798373        1.1953974827
 H          0.2005579674        3.9842834939        1.3316080044
 H         -0.1366111905        3.6151631408       -0.9950219933
 H          1.5670786550        4.0549162934       -1.1234109133
 H          0.9752168166        1.6522223231        2.2532669175
 H          3.4595690550       -0.9153975232       -1.2687182423
