  48
        -65.77128854
 Si        -2.7088460755       -1.6538190583        0.5367494861
 C         -1.3692954006       -2.2490082229        1.7560535182
 H         -0.5312341188       -2.6810621660        1.2149090740
 H         -1.7481555137       -3.0069885037        2.4339685452
 H         -0.9899331574       -1.4285866635        2.3597865678
 C         -4.0969541777       -0.7311232074        1.4600730797
 H         -4.8254620802       -0.3267229575        0.7625168233
 H         -3.7039295378        0.0990127752        2.0400796905
 H         -4.6264943226       -1.3904817567        2.1401936766
 C         -3.3535951108       -3.0404823284       -0.5812414879
 O         -0.0715685017       -1.3600486416       -2.3258243879
 H         -4.1906233344       -2.7053794555       -1.1855328507
 H         -3.6864909401       -3.8930829736        0.0008746687
 H         -2.5753150758       -3.3738684294       -1.2603661924
 C          0.4396785806       -0.3288480244       -1.9338626650
 C          1.9747634027       -0.2340684237       -1.9209295091
 H          2.2994609092       -1.2773985880       -1.9258812734
 H          2.2658476959        0.1899043570       -2.8859526261
 C         -0.2933081465        0.7726999365       -1.3353613823
 C         -1.2445549649        0.3862378706       -0.4256849114
 O         -2.0072064714       -0.6566786689       -0.6030957809
 C          0.4248460866        2.0670848819       -0.9993310369
 C          1.9234510997        0.7271562191        0.4532830441
 C          2.7477433459        0.5308263666       -0.8020122984
 C          2.1314605179       -0.1349145864        1.6649424759
 O         -1.3884420041        0.9855552866        0.7768694679
 C          4.1027443700       -0.1427859208       -0.5438100553
 C          3.5534109789       -0.6644951367        1.8121584570
 H          1.4545356264       -0.9921682059        1.5658579295
 H          1.8347519009        0.4103175996        2.5637404756
 C          4.0161620768       -1.2582985850        0.4884717800
 H          4.8032267863        0.6104577804       -0.1736517192
 H          4.5003053711       -0.5226124324       -1.4869944160
 H          3.5786625969       -1.4172011583        2.6026325675
 H          4.2258753302        0.1469776069        2.0998950227
 H          4.9943124856       -1.7288186380        0.6049807059
 H          3.3091071235       -2.0233418816        0.1616688934
 C         -0.5208870745        3.2469047668       -0.7314160950
 C          0.9079952696        1.5842743233        0.3412996772
 H          1.1738382831        2.3061129565       -1.7472322196
 C         -0.3019402150        1.8522155121        1.1901164631
 C         -0.6830758931        3.2782656244        0.7963358760
 H          0.0125718757        3.9816656774        1.2542007580
 H         -1.6958732395        3.5234915499        1.1104628819
 H         -1.4802570420        3.0847975852       -1.2233563197
 H         -0.1008539454        4.1796035333       -1.1056997058
 H         -0.1903897090        1.6890494097        2.2627157683
 H          2.9715970139        1.5304464079       -1.1906197828
