  48
        -65.77121606
 Si        -3.1887224597       -0.1524737084        0.2859295407
 C         -4.3703227109       -1.1184841874       -0.8356914117
 H         -4.8908286582       -0.4607073125       -1.5246903612
 H         -5.1181735841       -1.6489959503       -0.2561612080
 H         -3.8209329931       -1.8430907163       -1.4282660843
 C         -2.3546005298       -1.2437042241        1.6076390900
 H         -1.7013031287       -0.6588078285        2.2504684102
 H         -1.7542264486       -2.0143570819        1.1307323885
 H         -3.0815533133       -1.7385300108        2.2434470546
 C         -3.9986390508        1.3734405494        1.0903581793
 O         -0.5660946163       -1.5369462066       -2.0925161729
 H         -3.2752548787        1.9551824502        1.6546254299
 H         -4.7964869387        1.0872227042        1.7680785958
 H         -4.4280486509        2.0288425570        0.3375545476
 C          0.3546194866       -0.8100100623       -1.7705567207
 C          1.7371502771       -1.4435523037       -1.5399336153
 H          1.5134028882       -2.4984114179       -1.3630911166
 H          2.2645249301       -1.3901811016       -2.4963450715
 C          0.2109306763        0.5960906565       -1.4407783015
 C         -0.8753223748        0.8756301815       -0.6495320128
 O         -2.0369760302        0.3114852374       -0.8282325766
 C          1.4405820857        1.4399090157       -1.1594201099
 C          1.9908241765       -0.1552429122        0.6585721316
 C          2.7037984955       -0.9379996235       -0.4241649805
 C          1.6721905231       -0.7766539180        1.9877237501
 O         -0.7978640294        1.6685044934        0.4414105978
 C          3.5419428847       -2.1053886790        0.1156969728
 C          2.6505634829       -1.8660574837        2.4118851293
 H          0.6762273128       -1.2268872222        1.8991262806
 H          1.6111967495       -0.0012156278        2.7546416737
 C          2.8580949672       -2.8403269948        1.2601205006
 H          4.4932076815       -1.7121094188        0.4838034824
 H          3.7676491899       -2.7932702276       -0.7014845622
 H          2.2571479581       -2.3836036735        3.2890442766
 H          3.6093135975       -1.4204372683        2.6869981141
 H          3.4774611448       -3.6803175676        1.5803353586
 H          1.8936652980       -3.2353879573        0.9348092108
 C          1.1695080145        2.9511611122       -1.1852943167
 C          1.5268771899        1.0387393263        0.2879778891
 H          2.2649440804        1.1619998018       -1.8080372421
 C          0.5387604531        1.9878548780        0.9036603230
 C          0.9263991675        3.3295372187        0.2841347810
 H          1.8381646284        3.6985076215        0.7541282263
 H          0.1379930173        4.0697844648        0.4065673754
 H          0.2931805688        3.1700974838       -1.7958902176
 H          2.0169663004        3.4949793746       -1.6006922113
 H          0.4773499278        1.9884872283        1.9925360514
 H          3.4101761900       -0.2477169917       -0.8983054651
