  48
        -65.77115526
 Si        -3.1884420003       -0.1691256827        0.2034419263
 C         -2.3773270218       -1.5031001946        1.2967547338
 H         -3.1149534822       -2.1112813559        1.8101678896
 H         -1.7346056370       -1.0597950514        2.0535345853
 H         -1.7697791561       -2.1657086401        0.6855831447
 C         -3.9728710835        1.1933462711        1.2806057841
 H         -3.2391453381        1.6502562695        1.9386507979
 H         -4.7732212662        0.7984728801        1.8981264840
 H         -4.3940492914        1.9830809008        0.6645483011
 C         -4.3844552466       -0.8854015517       -1.0785694794
 O         -0.5604392843       -1.2222722072       -2.2741234350
 H         -4.8780089717       -0.1010921988       -1.6439513349
 H         -5.1536691346       -1.4869719853       -0.6063357064
 H         -3.8491485959       -1.5108600324       -1.7858216298
 C          0.3665012737       -0.5580773042       -1.8499025191
 C          1.7374999028       -1.2372891741       -1.6921983503
 H          1.4981447975       -2.3031207430       -1.6645774240
 H          2.2787817801       -1.0606070529       -2.6257183210
 C          0.2384960900        0.7936764217       -1.3379949747
 C         -0.8562082604        0.9825381204       -0.5311431598
 O         -2.0240686005        0.4718741802       -0.8042865474
 C          1.4756419845        1.5716103934       -0.9288076396
 C          1.9767265723       -0.2628742665        0.6637073740
 C          2.6946714402       -0.9033136768       -0.5057548122
 C          1.6304618339       -1.0527624600        1.8927347462
 O         -0.7837673259        1.6160426054        0.6595189712
 C          3.5080072025       -2.1463524838       -0.1183886191
 C          2.5872442135       -2.2047781708        2.1778662004
 H          0.6298481006       -1.4714172991        1.7316737494
 H          1.5691603330       -0.3869367297        2.7565098039
 C          2.7972529322       -3.0179126985        0.9076191947
 H          4.4593833016       -1.8217971819        0.3112930376
 H          3.7356746265       -2.7211572058       -1.0182050376
 H          2.1740520499       -2.8295793590        2.9721813024
 H          3.5481720915       -1.8156830264        2.5223653223
 H          3.3997756319       -3.9033771991        1.1189130720
 H          1.8319811526       -3.3497066408        0.5200847491
 C          1.2259549750        3.0765489449       -0.7533235545
 C          1.5343449452        0.9771152683        0.4518763074
 H          2.3058084866        1.3709062620       -1.5981839252
 C          0.5501234211        1.8494583862        1.1775155540
 C          0.9649866105        3.2564665827        0.7503615956
 H          1.8740926333        3.5447492203        1.2783445834
 H          0.1845483544        3.9851914619        0.9610886986
 H          0.3624912596        3.3899471823       -1.3406302245
 H          2.0872972618        3.6580910430       -1.0794905910
 H          0.4725823167        1.7038847579        2.2555610281
 H          3.4177762939       -0.1666702204       -0.8728276417
