  48
        -65.77116632
 Si        -3.1954017172       -0.1716466117       -0.0373102509
 C         -4.0652478965        1.1811424677        0.9850424635
 H         -4.4384039857        1.9748891840        0.3436885150
 H         -3.3866466228        1.6341276591        1.7022932664
 H         -4.9108435808        0.7801737603        1.5345944489
 C         -4.2858374538       -0.8819406369       -1.4133666779
 H         -4.7390176378       -0.0948186164       -2.0078852551
 H         -5.0856006834       -1.4915940230       -1.0068150785
 H         -3.6944843582       -1.4981182410       -2.0831487110
 C         -2.4673956852       -1.5113544730        1.1063892919
 O         -0.3849575796       -1.1877611203       -2.3310385225
 H         -1.8836284446       -1.0718636513        1.9116019974
 H         -1.8150822491       -2.1703619700        0.5390014750
 H         -3.2408994976       -2.1227529787        1.5596777002
 C          0.5058624023       -0.5300643565       -1.8269062895
 C          1.8619740762       -1.2112537754       -1.5761521192
 H          1.6223975216       -2.2773887585       -1.5817200360
 H          2.4716572491       -1.0213564651       -2.4637902845
 C          0.3368701695        0.8132406638       -1.3046418205
 C         -0.8157280552        0.9882315798       -0.5795214631
 O         -1.9585283736        0.4800690264       -0.9471032392
 C          1.5380444596        1.5858712810       -0.7915053326
 C          1.9220314072       -0.2728079114        0.8054904682
 C          2.7269890472       -0.8942311261       -0.3166228875
 C          1.4865731739       -1.0821168197        1.9927978051
 O         -0.8343977506        1.6034250712        0.6227871757
 C          3.5121768590       -2.1420361681        0.1114176464
 C          2.4225190069       -2.2368025619        2.3313049134
 H          0.5020224385       -1.4998491276        1.7507368115
 H          1.3588046077       -0.4298067114        2.8596049817
 C          2.7290925282       -3.0301829647        1.0682191355
 H          4.4280955425       -1.8228854933        0.6157124152
 H          3.8076560490       -2.7026978489       -0.7775479392
 H          1.9528568764       -2.8742807456        3.0830221788
 H          3.3539463936       -1.8514270546        2.7524788470
 H          3.3165577879       -3.9177963978        1.3106177216
 H          1.7963898988       -3.3576118703        0.6046688012
 C          1.2727004759        3.0876486824       -0.6118852275
 C          1.4940974534        0.9698888566        0.5802870732
 H          2.4165982538        1.3964930247       -1.3996195021
 C          0.4562616087        1.8298441586        1.2433207250
 C          0.8991869723        3.2437410837        0.8705669464
 H          1.7654966500        3.5244458929        1.4697841999
 H          0.1036709104        3.9684258181        1.0334079929
 H          0.4551085493        3.4094023347       -1.2574342127
 H          2.1548730412        3.6750346641       -0.8633535314
 H          0.2981277760        1.6672963643        2.3100734778
 H          3.4736980316       -0.1511079007       -0.6173714597
