  48
        -65.77114428
 Si        -2.9440815664       -0.8568694603       -0.3002221153
 C         -3.7022016273       -0.0491546219        1.2515609146
 H         -4.1208425436        0.9260237338        1.0189006461
 H         -2.9585304777        0.0979321897        2.0299249522
 H         -4.4985482967       -0.6585434330        1.6671068493
 C         -4.2024653476       -1.0278465671       -1.7093828528
 H         -4.6665794678       -0.0780758195       -1.9576141139
 H         -4.9923878508       -1.7220533322       -1.4428220365
 H         -3.7187624025       -1.4016718731       -2.6061362580
 C         -2.1033964205       -2.5123037557        0.1201781793
 O          0.2188154907       -1.3352271374       -2.1053112654
 H         -2.8166768840       -3.3303600042        0.1274508675
 H         -1.6203458222       -2.4970359877        1.0938077703
 H         -1.3454938964       -2.7350222583       -0.6256954901
 C          0.8973201911       -0.4184880739       -1.6784994852
 C          2.3917004840       -0.6183597227       -1.4114754228
 H          2.6127433890       -1.6353430266       -1.7404453803
 H          2.9315752105        0.0558018779       -2.0787722763
 C          0.3944919837        0.8733365317       -1.2612368613
 C         -0.8161104440        0.8589626746       -0.6109742182
 O         -1.8186714777        0.1356306785       -1.0206509741
 C          1.3848845231        1.8874759109       -0.7216656346
 C          1.9833385412        0.2312191821        1.0299257218
 C          2.9294823655       -0.4453944736        0.0524039279
 C          1.8189074068       -0.4345199040        2.3618117397
 O         -1.0337203134        1.5329138775        0.5384638030
 C          3.3137745019       -1.8195171937        0.6178406486
 C          1.3589843017       -1.8897051783        2.2038738654
 H          1.1041853196        0.1146150197        2.9755307536
 H          2.7797057888       -0.4132252140        2.8847479047
 C          2.0525579438       -2.5772338743        1.0195113927
 H          3.9676432552       -1.7009551980        1.4840033446
 H          3.8715900275       -2.3841041905       -0.1311139029
 H          0.2789508633       -1.9049995069        2.0529267801
 H          1.5684163921       -2.4243920714        3.1326118119
 H          2.2993015883       -3.6084404891        1.2762932910
 H          1.3782971553       -2.6032540516        0.1623674708
 C          0.8331175850        3.3197901832       -0.6655854936
 C          1.3594190744        1.3542596145        0.6830213041
 H          2.3422791358        1.8439062176       -1.2287871480
 C          0.1395137061        2.0451976633        1.2233937826
 C          0.3349762478        3.4916871152        0.7777113176
 H          1.0898695938        3.9669181818        1.4044298199
 H         -0.5909944651        4.0599065512        0.8422490954
 H          0.0159165139        3.4395924339       -1.3774141586
 H          1.6046008528        4.0489689162       -0.9096928554
 H         -0.0702457819        1.9216083369        2.2860812446
 H          3.8401270755        0.1639223513       -0.0162459086
