  48
        -65.77110481
 Si        -2.8618370842       -0.9478667624        0.7192948195
 C         -3.1311784472       -0.1740320924        2.4407742885
 H         -2.1879140366        0.0223777321        2.9428069160
 H         -3.7168559550       -0.8260825308        3.0810886800
 H         -3.6584661520        0.7729016356        2.3652502476
 C         -4.4884368002       -1.1808688929       -0.2278485873
 H         -5.0489192576       -0.2541168118       -0.3057878187
 H         -5.1234261274       -1.9110065540        0.2626768063
 H         -4.2925457697       -1.5321194574       -1.2358475557
 C         -1.8536086776       -2.5585235064        0.8364851473
 O         -0.5054899816       -1.2386661623       -2.1113752195
 H         -2.4866771931       -3.4092483865        1.0677218383
 H         -1.0855434778       -2.5097834063        1.6042269257
 H         -1.3657613517       -2.7534327055       -0.1145605145
 C          0.2547930144       -0.3100005298       -1.9053594741
 C          1.7503378386       -0.4516511798       -2.2026515193
 H          1.8666704486       -1.4438356116       -2.6423482561
 H          1.9933889462        0.2721641037       -2.9826303692
 C         -0.1008099947        0.9382695369       -1.2639807499
 C         -1.0016524988        0.8396150418       -0.2305739488
 O         -2.0672705008        0.0951017303       -0.3062646677
 C          0.9899087286        1.9700638008       -1.0491050010
 C          2.2193295710        0.2632139771        0.2695311188
 C          2.7751238849       -0.3105465810       -1.0226867313
 C          2.5609972428       -0.4767683601        1.5262479996
 O         -0.8124728116        1.4443434474        0.9614576396
 C          3.3964089893       -1.6810108866       -0.7220877478
 C          2.1331014769       -1.9476986651        1.4416292722
 H          2.0872498929       -0.0030282728        2.3866679713
 H          3.6428778073       -0.4230772005        1.6807364807
 C          2.3974376553       -2.5374211408        0.0490157850
 H          4.3105068357       -1.5593343230       -0.1377474500
 H          3.6744348052       -2.1730938360       -1.6556572928
 H          1.0695957307       -2.0206408238        1.6710200997
 H          2.6731774068       -2.5118511741        2.2047412934
 H          2.7695589317       -3.5590644833        0.1385238299
 H          1.4658143803       -2.5745743961       -0.5173261066
 C          0.4571659351        3.3709110362       -0.7132322215
 C          1.4800637397        1.3692636418        0.2380901692
 H          1.7044925267        1.9949045757       -1.8642801272
 C          0.5145311315        1.9754547130        1.2166923550
 C          0.5007798013        3.4494011704        0.8207125924
 H          1.4164051896        3.9284481374        1.1679698750
 H         -0.3563136707        3.9701312813        1.2434951330
 H         -0.5625618622        3.4874373885       -1.0812956231
 H          1.0723114974        4.1458781115       -1.1687651398
 H          0.7005081956        1.7907880803        2.2749565182
 H          3.5722503040        0.3571146658       -1.3748848435
