  48
        -65.77110018
 Si        -3.0277577857       -0.4497265592        0.5195417200
 C         -4.5988547407       -0.3304637722       -0.5358355100
 H         -4.3939140460       -0.6392561055       -1.5558482777
 H         -4.9876157003        0.6827871609       -0.5709767818
 H         -5.3812589496       -0.9713564583       -0.1434000994
 C         -2.3168012032       -2.2151632076        0.5683405827
 H         -1.6020117676       -2.3487154697        1.3764468064
 H         -1.8098216574       -2.4307587151       -0.3681400193
 H         -3.0980065751       -2.9564418658        0.7031963687
 C         -3.2820209010        0.2400006987        2.2786497439
 O         -0.6093812381       -0.9284686911       -2.2382874069
 H         -2.3543952667        0.2437291322        2.8441662351
 H         -4.0057199348       -0.3481225958        2.8341266268
 H         -3.6444250722        1.2638185413        2.2483645294
 C          0.2951455435       -0.1799119725       -1.9152576694
 C          1.7535747032       -0.5700590758       -2.1725780062
 H          1.7101635611       -1.5235845200       -2.7018965414
 H          2.1639640472        0.1623615013       -2.8701191131
 C          0.1390458912        1.0495526043       -1.1668708550
 C         -0.8199695183        1.0278876504       -0.1823915201
 O         -1.9983985126        0.5075334269       -0.3721674533
 C          1.3864804459        1.8349548418       -0.8100196811
 C          2.2120693047       -0.1848463079        0.3733158036
 C          2.7249296044       -0.7265345057       -0.9500454309
 C          2.3480791213       -1.0886661538        1.5599970908
 O         -0.5883682747        1.4735805968        1.0706345858
 C          3.0798468808       -2.2081461755       -0.7683844887
 C          1.6768551251       -2.4457046008        1.3109015839
 H          1.9168058937       -0.6201175616        2.4452671854
 H          3.4125864834       -1.2434935264        1.7605871352
 C          1.9068019261       -2.9395658210       -0.1243522964
 H          3.9686326942       -2.3075596697       -0.1422455344
 H          3.3167622748       -2.6524404671       -1.7366162687
 H          0.6063364782       -2.3508047623        1.4946417246
 H          2.0709844345       -3.1659716047        2.0307550569
 H          2.0883532386       -4.0153346616       -0.1264529156
 H          1.0143173585       -2.7549177911       -0.7239110760
 C          1.1011371653        3.2736968332       -0.3544195009
 C          1.6880334066        1.0371756386        0.4272204636
 H          2.1366765325        1.8005675893       -1.5922051900
 C          0.7976400786        1.7203823317        1.4260660399
 C          1.0755075514        3.2009265345        1.1802320984
 H          2.0433271311        3.4656087371        1.6065188619
 H          0.3067910624        3.8320026842        1.6222003731
 H          0.1411876692        3.6122521051       -0.7452968831
 H          1.8711012791        3.9586061872       -0.7073198593
 H          0.8889042312        1.4072161630        2.4663651594
 H          3.6439821964       -0.1829548801       -1.2051279397
