  48
        -65.77103224
 Si        -2.6756966620       -1.5933455871        0.6685268762
 C         -3.6691701565       -0.8049287855        2.0913462893
 H         -3.0619179756       -0.1051853258        2.6587454458
 H         -4.0411482134       -1.5567956787        2.7799448375
 H         -4.5265987000       -0.2565094885        1.7111709675
 C         -3.7355633384       -2.6680937608       -0.4752304589
 H         -4.6147260607       -2.1342258878       -0.8224396135
 H         -4.0719815083       -3.5671010634        0.0299664330
 H         -3.1644145617       -2.9629532581       -1.3497257061
 C         -1.1458091295       -2.5050561345        1.3464244371
 O         -0.4005855860       -1.3420455917       -2.2014416741
 H         -0.6077254774       -1.8977088298        2.0704340450
 H         -0.4658997809       -2.7408763687        0.5318750831
 H         -1.4116952815       -3.4362988547        1.8359970646
 C          0.2114544354       -0.3346647251       -1.8979254764
 C          1.7440803050       -0.3478037007       -2.0257836749
 H          1.9951885311       -1.4112175947       -2.0393908340
 H          1.9744305712        0.0427361145       -3.0207890996
 C         -0.3874192569        0.8323259885       -1.2788670567
 C         -1.2926559807        0.5330993842       -0.2900867173
 O         -2.1647379263       -0.4281418923       -0.4090419999
 C          0.4497498033        2.0721887405       -1.0246308767
 C          1.9702390187        0.6482730231        0.3221501900
 C          2.6659070685        0.3758967828       -0.9950406495
 C          2.2289987502       -0.2033765090        1.5313330831
 O         -1.2797985324        1.1373309666        0.9173894344
 C          3.9885077711       -0.3884585107       -0.8428177093
 C          3.6212763118       -0.8232313361        1.5653243676
 H          1.4936280089       -1.0165055796        1.5123556639
 H          2.0488371772        0.3769366288        2.4390486569
 C          3.9208784626       -1.4744510816        0.2218463399
 H          4.7708218809        0.3197640151       -0.5573800700
 H          4.2702924744       -0.8141708607       -1.8078407539
 H          3.6696730866       -1.5591909351        2.3703495772
 H          4.3683493708       -0.0527576132        1.7695194150
 H          4.8715657653       -2.0094496707        0.2627944621
 H          3.1369629450       -2.1948642077       -0.0200221955
 C         -0.3837078276        3.3200040663       -0.6987081624
 C          1.0075623895        1.5699460701        0.2790013201
 H          1.1487434877        2.2484985583       -1.8357291816
 C         -0.1051977715        1.9311206314        1.2211442256
 C         -0.4193006142        3.3760378281        0.8366244955
 H          0.3571189775        4.0342065013        1.2269348027
 H         -1.3843932357        3.6932270640        1.2271087174
 H         -1.3887825962        3.2243524629       -1.1102731002
 H          0.0709251898        4.2164249434       -1.1185190905
 H          0.0851454491        1.7724690498        2.2831752403
 H          2.9234713178        1.3511400098       -1.4226023052
