  48
        -65.77094010
 Si        -2.6768826599       -1.5753004162        0.6572434950
 C         -3.5682186991       -0.8290002051        2.1680190551
 H         -2.9130076197       -0.1678507642        2.7283851729
 H         -3.9182906335       -1.6019503643        2.8446718833
 H         -4.4323360206       -0.2457225387        1.8622132877
 C         -3.8307447566       -2.5593917808       -0.4771731469
 H         -4.6998387805       -1.9764682636       -0.7660227351
 H         -4.1840273650       -3.4620257864        0.0097400592
 H         -3.3103385241       -2.8453293687       -1.3855919884
 C         -1.1457651130       -2.5671745482        1.2072779565
 O         -0.4433868368       -1.3253548253       -2.1858958243
 H         -0.5633000161       -2.0264280427        1.9495994741
 H         -0.5057203036       -2.7601336287        0.3504324263
 H         -1.4169382594       -3.5241931328        1.6410954669
 C          0.1876586091       -0.3278162201       -1.8879997064
 C          1.7189344865       -0.3677502642       -2.0249236138
 H          1.9513630926       -1.4353717605       -2.0411930677
 H          1.9503499099        0.0199605170       -3.0207814181
 C         -0.3869073874        0.8503758834       -1.2678339586
 C         -1.2924601190        0.5685009612       -0.2740125317
 O         -2.1850652107       -0.3743072256       -0.3889830387
 C          0.4740719097        2.0750529708       -1.0195422742
 C          1.9751421230        0.6253624702        0.3215745260
 C          2.6592649347        0.3384130011       -0.9985629592
 C          2.2237440864       -0.2287027545        1.5312571156
 O         -1.2616884451        1.1727030432        0.9329903628
 C          3.9670528942       -0.4519317014       -0.8515580216
 C          3.6027914294       -0.8777434415        1.5584762450
 H          1.4711370420       -1.0260923974        1.5187489983
 H          2.0612796466        0.3573233894        2.4386278775
 C          3.8819131924       -1.5358605903        0.2139562112
 H          4.7645007316        0.2406589991       -0.5696823339
 H          4.2363295301       -0.8835514613       -1.8175239199
 H          3.6398286929       -1.6140797581        2.3637651573
 H          4.3669145722       -0.1230327872        1.7583890033
 H          4.8213250068       -2.0907054317        0.2505747725
 H          3.0817713261       -2.2396929265       -0.0235421195
 C         -0.3350439560        3.3380932516       -0.6910674720
 C          1.0292517971        1.5643843444        0.2818561970
 H          1.1721111300        2.2375922023       -1.8343505611
 C         -0.0720052810        1.9464421102        1.2292243604
 C         -0.3627419707        3.3961449873        0.8443658467
 H          0.4266717494        4.0411693012        1.2305339414
 H         -1.3204354635        3.7303024904        1.2388576600
 H         -1.3435065764        3.2604167161       -1.0980863221
 H          0.1339806445        4.2257164932       -1.1137374863
 H          0.1211208828        1.7859691514        2.2904688496
 H          2.9339670699        1.3081750841       -1.4279593072
