  48
        -65.77046640
 Si        -2.8793570595       -0.2287792083        0.7596213319
 C         -4.6079124068        0.3808756046        0.2618990665
 H         -4.7191251230        1.4508695599        0.4117510225
 H         -5.3766352646       -0.1160834241        0.8444828739
 H         -4.8010217909        0.1741329586       -0.7860089544
 C         -2.6667718483       -2.0976871781        0.4684044221
 H         -1.8865580569       -2.5331063696        1.0873797666
 H         -2.4026055588       -2.2799199820       -0.5689611657
 H         -3.5856561846       -2.6342864768        0.6824731905
 C         -2.4504470793        0.2402046743        2.5633507773
 O         -0.8054652565       -1.2918752408       -2.0399296591
 H         -1.5993587671        0.9129041297        2.6004420246
 H         -2.2096524925       -0.6327959309        3.1635847923
 H         -3.2813302065        0.7428383159        3.0490492214
 C          0.1774273639       -0.5930083052       -1.8772291816
 C          1.5825909242       -1.1755245199       -2.0431160456
 H          1.4367943134       -2.2095596588       -2.3609963900
 H          2.0565502683       -0.6527298870       -2.8754339556
 C          0.1639369145        0.7775241645       -1.4073794792
 C         -0.7195634133        1.0583497430       -0.3954753422
 O         -1.9272185735        0.5688054455       -0.3505558208
 C          1.4886888143        1.5131282163       -1.3160105269
 C          2.1817651941       -0.2253491106        0.3245375459
 C          2.5452388307       -1.1739665898       -0.8054338805
 C          2.2196384275       -0.8082149963        1.7041405032
 O         -0.3789592932        1.8063200903        0.6789460507
 C          2.6355611020       -2.5957774472       -0.2326740086
 C          1.2518036801       -1.9948502677        1.7927561314
 H          1.9489706059       -0.0565860934        2.4458263710
 H          3.2348170206       -1.1427563804        1.9332118257
 C          1.3756263041       -2.9142160119        0.5668993129
 H          3.5159606871       -2.6889136592        0.4058451116
 H          2.7534825964       -3.3142494464       -1.0455964170
 H          0.2334007932       -1.6079952371        1.8609478015
 H          1.4577942933       -2.5479728875        2.7112804381
 H          1.3910549718       -3.9594506104        0.8796129937
 H          0.5117244125       -2.7785710206       -0.0849044777
 C          1.3433296331        3.0397945898       -1.2349067286
 C          1.8049002746        1.0255822284        0.0703811322
 H          2.1821610438        1.2170666497       -2.0948689887
 C          1.0402913902        2.0208992707        0.8963444519
 C          1.4078151694        3.3605019699        0.2657314579
 H          2.4166876186        3.6406904471        0.5693243986
 H          0.7153799290        4.1461275714        0.5619776690
 H          0.3893677454        3.3522395082       -1.6603643982
 H          2.1395943694        3.5409118093       -1.7838368680
 H          1.1774667113        1.9778238243        1.9772085744
 H          3.5380227718       -0.8937616111       -1.1812900183
