  48
        -65.77046305
 Si        -2.6494190782       -1.4793351485        1.0059036552
 C         -3.2040476971       -3.1789742354        0.3704782155
 H         -3.7891249004       -3.0883163965       -0.5387113423
 H         -3.8170271456       -3.6809840313        1.1108228858
 H         -2.3578122820       -3.8215887088        0.1497898077
 C         -1.5387553706       -1.6454287127        2.5495282521
 H         -1.1621341656       -0.6789852681        2.8717238050
 H         -0.6832306024       -2.2868565361        2.3522122869
 H         -2.0831613222       -2.0793126261        3.3819231802
 C         -4.1225852367       -0.3270044672        1.3582365878
 O          0.2611088749       -0.6249359614       -3.4574574826
 H         -4.7268707505       -0.1867074792        0.4660072938
 H         -3.7853708149        0.6525985186        1.6833813924
 H         -4.7679759713       -0.7306850663        2.1318276352
 C          0.4214612401       -0.4164015702       -2.2832883094
 C          1.5890443837       -1.0166825752       -1.5012530197
 H          1.1716158118       -1.6218350469       -0.6944456560
 H          2.1444051217       -1.6658546073       -2.1815775676
 C         -0.3535269493        0.5374567324       -1.4479279834
 C         -1.1138552779        0.2041701535       -0.3916003264
 O         -1.7573072459       -0.9533994940       -0.2971588566
 C          0.3857844981        1.8716508316       -1.3308068634
 C          1.8960493860        0.7031938788        0.2841500244
 C          2.5633344067        0.0453734212       -0.9018048053
 C          2.1283697682        0.1364547612        1.6571834819
 O         -1.2900949951        1.0253894224        0.6836795662
 C          3.9244549433       -0.5753460041       -0.5678958477
 C          3.5433402644       -0.3898740839        1.8727941940
 H          1.4240705916       -0.6931437469        1.7930925371
 H          1.8914731235        0.8880318588        2.4121837579
 C          3.9185544494       -1.3432034949        0.7465951802
 H          4.6587699680        0.2309208617       -0.4915608352
 H          4.2361330156       -1.2254665065       -1.3875363638
 H          3.5978071043       -0.8957333190        2.8387988286
 H          4.2483796369        0.4442370324        1.8904827781
 H          4.9075101604       -1.7691070162        0.9263966813
 H          3.2019739082       -2.1653987386        0.7012793033
 C         -0.5447202752        3.0863380799       -1.2108775407
 C          0.9372225865        1.6014886491        0.0434941051
 H          1.1041383888        1.9870635016       -2.1384902055
 C         -0.2344420973        1.9988026418        0.8973916742
 C         -0.6857865417        3.3281522456        0.3000874361
 H         -0.0203468251        4.1229465182        0.6379262353
 H         -1.7051658551        3.5699280267        0.5946622092
 H         -1.5096718083        2.8677995265       -1.6669476598
 H         -0.1191680536        3.9533550900       -1.7147023411
 H         -0.0707230834        2.0234889330        1.9754309427
 H          2.7400661081        0.7914201152       -1.6826620103
