  48
        -65.76993973
 Si        -2.8176675930       -1.5171801061        0.4322742258
 C         -2.2572614714       -3.1399379473       -0.3868890511
 H         -3.0847914212       -3.8313051465       -0.5091272319
 H         -1.4930578060       -3.6488953403        0.1940773871
 H         -1.8406275159       -2.9316765923       -1.3679472843
 C         -2.2021163947       -1.4018241540        2.2336902113
 H         -2.4928049373       -0.4617770989        2.6934643076
 H         -1.1176961068       -1.4654291538        2.2808824997
 H         -2.6046555560       -2.2063839136        2.8413707459
 C         -4.6947268193       -1.2353709222        0.3188513202
 O         -0.3894275093       -1.2217258528       -2.3466337169
 H         -5.2387409188       -2.0328023548        0.8141945945
 H         -5.0171604790       -1.2102117224       -0.7177180764
 H         -4.9927551654       -0.2971793297        0.7783393530
 C          0.2474480206       -0.2547083732       -1.9724572822
 C          1.7742743257       -0.2485305914       -2.1057078350
 H          2.0297432397       -1.2397952022       -2.4859636718
 H          2.0188059437        0.4682839671       -2.8926819269
 C         -0.3090026963        0.8914099245       -1.2823802362
 C         -1.2695271177        0.6062795239       -0.3435511458
 O         -2.1824723994       -0.3058748893       -0.5223839978
 C          0.6195399481        2.0340923508       -0.9128311177
 C          1.9041172885        0.3927678122        0.4189607395
 C          2.6607434010        0.0447034456       -0.8475766967
 C          2.1598029160       -0.4738264870        1.6109682229
 O         -1.2859289165        1.1826448298        0.8777499373
 C          3.5884605685       -1.1418004395       -0.5759167371
 C          3.6595023999       -0.5841387271        1.9056096141
 H          1.7564101836       -1.4695471682        1.4036436143
 H          1.6398955318       -0.0833092854        2.4868456736
 C          4.4785935167       -0.8584386653        0.6321322158
 H          4.2179412648       -1.3185965029       -1.4505715020
 H          2.9980382938       -2.0432432702       -0.4057817179
 H          3.8151796546       -1.3788785214        2.6369759966
 H          3.9942399010        0.3486117354        2.3627002365
 H          5.1007451717        0.0091440480        0.4019782515
 H          5.1487964525       -1.7044680482        0.7911064904
 C         -0.1089840512        3.3398671507       -0.5634818871
 C          1.0551340357        1.4168067697        0.3879999184
 H          1.3939550087        2.1848548876       -1.6575140299
 C         -0.0638702666        1.8450199224        1.2923435166
 C         -0.2159871319        3.3296363916        0.9695200663
 H          0.6002810088        3.8882559337        1.4279059162
 H         -1.1641115940        3.7230224218        1.3309818755
 H         -1.0972209719        3.3580798349       -1.0235303283
 H          0.4461342322        4.2074831785       -0.9178008781
 H          0.0455021291        1.6171313301        2.3531123873
 H          3.2955062832        0.9064511436       -1.0916594645
