  48
        -65.77338102
 Si        -3.2590128340       -0.2835457735        0.4359212647
 C         -3.4010405562       -2.0315855039        1.1689070942
 H         -3.0183333571       -2.0479943973        2.1849869390
 H         -2.8577167541       -2.7698451337        0.5931996083
 H         -4.4436110495       -2.3283303663        1.2065372437
 C         -4.5403679205        0.7600431303        1.4113811365
 H         -4.5468953402        1.8011581991        1.1008302862
 H         -4.3338279387        0.7438149867        2.4769626837
 H         -5.5438263511        0.3724796627        1.2692173917
 C         -3.6640913232        0.0506922764       -1.3977977285
 O         -1.4068656614       -1.4503433594       -0.7458785517
 H         -4.6714258323        0.4381765958       -1.5105024052
 H         -3.5831397920       -0.8498950013       -1.9950636991
 H         -2.9764488875        0.7800305518       -1.8168662117
 C         -0.4674163319       -0.7349774821       -1.0916274844
 C          0.7288961108       -1.3705466735       -1.7924610454
 H          0.5187234346       -2.4416403611       -1.8159095706
 H          0.7227543595       -1.0159214168       -2.8252995060
 C         -0.3567692258        0.6531215047       -0.7745484310
 C         -0.8155274075        0.9687314773        0.4940169648
 O         -1.8909173755        0.5138148156        1.0403707024
 C          0.8926948798        1.3982114730       -1.2064142895
 C          2.2065591445       -0.2793421277        0.0529105094
 C          2.1580721482       -1.1535358598       -1.1836935417
 C          2.7633035188       -0.9021260772        1.2929449039
 O         -0.0990842714        1.7269184454        1.3403748415
 C          2.8097730672       -2.5044219917       -0.8809376753
 C          4.1436485812       -1.5213564114        1.0436213816
 H          2.0693579954       -1.6822592573        1.6194787223
 H          2.8280477961       -0.1662700480        2.0949709393
 C          4.1994750101       -2.2929575907       -0.2856175157
 H          2.8949302822       -3.0823647395       -1.8036087980
 H          2.1876214793       -3.0731214699       -0.1885196295
 H          4.3831471104       -2.1834798786        1.8771633783
 H          4.8906449599       -0.7259350676        1.0351384073
 H          4.7991642820       -1.7365182813       -1.0093364020
 H          4.6830051586       -3.2596264500       -0.1382811935
 C          0.7630716493        2.9252009553       -1.1106818347
 C          1.7187348741        0.9560780120       -0.0297048778
 H          1.2365701430        1.0758149943       -2.1843641095
 C          1.2934012852        1.9566907970        1.0048341351
 C          1.3711185531        3.2843985229        0.2543668820
 H          2.4139060585        3.5864598546        0.1566284464
 H          0.8203646689        4.0678784734        0.7710149637
 H         -0.2847757237        3.2229037545       -1.1618065990
 H          1.2944439644        3.4170538358       -1.9244184339
 H          1.8252877262        1.9392068013        1.9561785365
 H          2.7664161475       -0.6616409538       -1.9532552083
