  48
        -65.76936550
 Si        -3.2450936462       -0.2126354278        0.1618163494
 C         -4.3030068147       -1.5063381119       -0.7368791870
 H         -3.7793431101       -2.4509580645       -0.8425390052
 H         -4.5734115855       -1.1714709646       -1.7327866314
 H         -5.2201740466       -1.6951207268       -0.1900435563
 C         -2.6768190587       -0.8442677539        1.8712352384
 H         -2.0160280528       -0.1314098567        2.3554268015
 H         -2.1385874962       -1.7846181651        1.7825726147
 H         -3.5201827934       -1.0129897611        2.5328136503
 C         -4.1430258580        1.4581530665        0.3209024154
 O          0.7630435061       -0.8564807092       -3.3621136793
 H         -4.4192384537        1.8440045327       -0.6567268592
 H         -3.5108845606        2.2000039340        0.7994562620
 H         -5.0522115701        1.3670859328        0.9066602086
 C          0.7068120955       -0.6916976398       -2.1720533821
 C          1.2597433024       -1.7174550797       -1.1818907956
 H          0.4088199963       -2.0823018358       -0.6003710516
 H          1.6711990371       -2.5485214601       -1.7597783201
 C          0.2313572144        0.5291909341       -1.4732470508
 C         -0.8573558770        0.6186292257       -0.6929510796
 O         -1.9452820345       -0.1207918574       -0.8732759102
 C          1.4207238489        1.3806974593       -1.0347902100
 C          1.7570377354       -0.2546448487        0.8112673282
 C          2.3520833594       -1.2129458379       -0.1951539758
 C          1.5213094005       -0.8194956845        2.1758431835
 O         -0.9394202509        1.4729454358        0.3693971894
 C          2.9942316881       -2.4051952265        0.5223065422
 C          2.8295302882       -1.3358393065        2.7969771759
 H          0.8175662514       -1.6511151961        2.0773152752
 H          1.0642549938       -0.0788657395        2.8314210136
 C          3.7769918850       -1.8982461875        1.7300941462
 H          3.6588476536       -2.9327037036       -0.1637674565
 H          2.2292676290       -3.1109088428        0.8506160424
 H          2.5896262272       -2.1078563171        3.5301593973
 H          3.3257165725       -0.5223705703        3.3281021863
 H          4.4595258826       -1.1150719397        1.3928331312
 H          4.3802905050       -2.7016945455        2.1547225114
 C          1.1449436887        2.8903930790       -1.0671659297
 C          1.3874536674        0.9615246727        0.4104873458
 H          2.3139000411        1.1138767457       -1.5949766994
 C          0.3296756239        1.8822020252        0.9456095565
 C          0.7017111738        3.2420156801        0.3622794916
 H          1.5222418961        3.6718590258        0.9373352278
 H         -0.1435075662        3.9272038718        0.3840221121
 H          0.3608258213        3.1145375636       -1.7895030076
 H          2.0389126387        3.4432277153       -1.3533801646
 H          0.1752097072        1.8832321825        2.0253143663
 H          3.1289779817       -0.7073606596       -0.7775794751
