  48
        -65.76932893
 Si        -3.1805651262       -0.2397284973        0.0135786112
 C         -2.8494077602       -0.2894957946        1.8911815980
 H         -3.6322545235       -0.8283989053        2.4159054378
 H         -2.7965848209        0.7106841578        2.3111573138
 H         -1.9068699698       -0.7841052665        2.1126643852
 C         -4.7326015091        0.7850663132       -0.3821033222
 H         -4.8640229566        0.8852369393       -1.4552693551
 H         -4.6739480904        1.7859414746        0.0363687405
 H         -5.6242045154        0.3126550194        0.0167794034
 C         -3.2287222588       -1.9886779475       -0.7323574457
 O         -0.4428128618       -1.0509692940       -2.3784891735
 H         -2.7831137798       -2.7280430764       -0.0725446557
 H         -2.6731020206       -2.0048642457       -1.6653804686
 H         -4.2455767818       -2.3079914773       -0.9362902234
 C          0.4630088793       -0.4308162329       -1.8533659491
 C          1.8128054244       -1.1393762487       -1.6565696362
 H          1.5585121951       -2.2011963855       -1.6996438304
 H          2.4091064384       -0.9229118238       -2.5472616637
 C          0.3165085593        0.8881699781       -1.2663594510
 C         -0.8094021241        1.0431260612       -0.4963503594
 O         -1.9638510206        0.5338408511       -0.8223590147
 C          1.5420336709        1.6327412021       -0.7666104973
 C          1.9290495925       -0.2859660478        0.7560387934
 C          2.7029302212       -0.8816711731       -0.4014638841
 C          1.4829541142       -1.1355828909        1.9109350095
 O         -0.7859346724        1.6517610928        0.7085905725
 C          3.4718694691       -2.1567310406       -0.0282348751
 C          2.3977392452       -2.3211667497        2.1960693290
 H          0.4886152301       -1.5232376893        1.6533045885
 H          1.3692182826       -0.5186850199        2.8049988767
 C          2.6819824253       -3.0688177407        0.9001523814
 H          4.3964789796       -1.8709892544        0.4802090143
 H          3.7515280233       -2.6873702627       -0.9404463743
 H          1.9207368330       -2.9796923587        2.9247068519
 H          3.3385486944       -1.9701602343        2.6262461317
 H          3.2569817514       -3.9743113453        1.1031556225
 H          1.7406075271       -3.3631236453        0.4318983374
 C          1.3047881955        3.1318015541       -0.5333295483
 C          1.5256124603        0.9736559914        0.5862514137
 H          2.3999351295        1.4495030433       -1.4053157130
 C          0.5229776891        1.8311023549        1.3043129402
 C          0.9859474070        3.2470125814        0.9653397375
 H          1.8786850986        3.4874974511        1.5428847321
 H          0.2136548679        3.9832075125        1.1794978342
 H          0.4688890864        3.4831897200       -1.1386270920
 H          2.1853475154        3.7151780250       -0.7991841947
 H          0.3886677592        1.6361604892        2.3688486596
 H          3.4579937402       -0.1414652940       -0.6883779024
