  48
        -65.76787374
 Si        -3.0177261214       -0.5136047265       -0.2998562045
 C         -3.5772942754        0.2879143709        1.3332251773
 H         -4.4816343313       -0.1778212220        1.7126532116
 H         -3.7797871381        1.3459834164        1.1969604691
 H         -2.8151820384        0.2043279955        2.1028784550
 C         -4.3778299587       -0.4821779165       -1.6216328249
 H         -4.7720820656        0.5187610614       -1.7664973038
 H         -5.2048938074       -1.1253911730       -1.3410347284
 H         -3.9990885426       -0.8255373792       -2.5789767179
 C         -2.4262424781       -2.3010373605        0.0330777079
 O          1.1950842952       -0.1610701594       -3.2536862756
 H         -3.2471645725       -2.9314313944        0.3588340767
 H         -1.6621808325       -2.3455166767        0.8057180759
 H         -2.0114463598       -2.7459973873       -0.8676685631
 C          0.9909814054       -0.1630425114       -2.0680392379
 C          1.4040158320       -1.3332280126       -1.1748609541
 H          0.4939501908       -1.7418109741       -0.7318333178
 H          1.8558555630       -2.0925534531       -1.8170544863
 C          0.4481559893        0.9639876961       -1.2658622271
 C         -0.7287268455        0.9515885344       -0.6182332699
 O         -1.7869028434        0.2839293722       -1.0684247759
 C          1.5761634808        1.7305671246       -0.5742292487
 C          1.6789924112       -0.1847788584        1.0295790761
 C          2.4086480518       -0.9667667992       -0.0388238695
 C          1.0918188522       -0.9164968795        2.2050696212
 O         -0.9443006847        1.6241569691        0.5476926173
 C          3.1121601616       -2.2184715748        0.4978739521
 C          1.9220496689       -2.1092852345        2.6669982652
 H          0.0993816239       -1.2762409915        1.9060753418
 H          0.9444525275       -0.2224417419        3.0343593145
 C          2.2533018682       -3.0031433558        1.4799167246
 H          4.0241771845       -1.9055333839        1.0129202311
 H          3.4100388389       -2.8529075681       -0.3389711869
 H          1.3658946767       -2.6655617980        3.4242581583
 H          2.8497360911       -1.7571905181        3.1235949563
 H          2.7960601576       -3.8889558221        1.8151568093
 H          1.3331948490       -3.3365439152        0.9963037267
 C          1.2893995410        3.2285828110       -0.4061309167
 C          1.3723493680        1.0892098144        0.7716106767
 H          2.5266585333        1.5499328269       -1.0699573483
 C          0.2491133008        1.9275108566        1.3148379827
 C          0.6737984477        3.3580413623        0.9959959724
 H          1.4145270955        3.6881577275        1.7246993792
 H         -0.1760406351        4.0371237053        1.0216749260
 H          0.5958747989        3.5675914355       -1.1747921123
 H          2.2054755257        3.8116313800       -0.4936841572
 H         -0.0257588549        1.7645384789        2.3575109182
 H          3.1824001923       -0.3363712055       -0.4877324144
