  48
        -65.76778859
 Si        -2.9565568882       -0.5748468562        0.5017297028
 C         -2.7817647559       -0.7159994559        2.3920308202
 H         -1.7998576995       -1.0830236401        2.6779236635
 H         -3.5203562711       -1.3944661264        2.8077990908
 H         -2.9127744451        0.2512884974        2.8675467032
 C         -4.6983561901       -0.0388006265       -0.0241833609
 H         -4.7433348281        0.1434049132       -1.0931591873
 H         -5.0043980658        0.8747239040        0.4760576092
 H         -5.4277006149       -0.8057962916        0.2131748338
 C         -2.4760813263       -2.2389009933       -0.3079471454
 O          0.0233746446        1.3290885316       -3.2000679328
 H         -1.5049946047       -2.5969226834        0.0261936148
 H         -2.4397308592       -2.1463651027       -1.3902284853
 H         -3.1997559551       -3.0121405947       -0.0716425167
 C          0.2372240681        0.8138617747       -2.1341902149
 C          0.8336067900       -0.5894042059       -2.0172766343
 H          0.0857211099       -1.2170178202       -1.5290622893
 H          0.9964023401       -0.9608631816       -3.0315911875
 C          0.0837384223        1.4521692319       -0.8009107425
 C         -0.8167248782        1.0878384436        0.1266546991
 O         -2.0136983531        0.5994560561       -0.1863592310
 C          1.4343205408        1.9251300623       -0.2619808986
 C          1.8894367665       -0.4792024573        0.2478266188
 C          2.1731992456       -0.6773609639       -1.2238880432
 C          1.6480029089       -1.6815520931        1.1183867929
 O         -0.5867010914        1.1878142531        1.4665476039
 C          2.9074780742       -1.9879389017       -1.5293550143
 C          2.4826133798       -2.8987489638        0.7345501021
 H          0.5861599593       -1.9435007884        1.0293753528
 H          1.8276011098       -1.4218254623        2.1631030716
 C          2.3462307408       -3.1736158792       -0.7566944587
 H          3.9582251657       -1.8649774063       -1.2540985049
 H          2.8707241642       -2.1814583912       -2.6030286591
 H          2.1528430489       -3.7617052549        1.3165736535
 H          3.5325568362       -2.7149284889        0.9730268917
 H          2.8948874778       -4.0785017562       -1.0246514942
 H          1.2965697220       -3.3300282939       -1.0124774394
 C          1.3430702078        3.1860665729        0.6077159975
 C          1.6239892238        0.7593517945        0.6706932671
 H          2.1545666372        2.0367393039       -1.0685408813
 C          0.8115582120        1.2104776958        1.8521036456
 C          1.2311066770        2.6643825194        2.0488296638
 H          2.1943573444        2.6989119846        2.5583750674
 H          0.4979390568        3.2107513081        2.6386885696
 H          0.4671700083        3.7716206330        0.3308134664
 H          2.2253030300        3.8119721454        0.4785138238
 H          0.8752211230        0.6005875003        2.7539173697
 H          2.8121911279        0.1348047514       -1.5839819240
