  48
        -65.76777971
 Si        -3.0900960469       -1.1452623591        0.2867322081
 C         -3.9940949080       -0.5143547384       -1.2668610104
 H         -3.4666064680       -0.8377335052       -2.1601306751
 H         -4.0415167350        0.5717030387       -1.2907282013
 H         -5.0113776286       -0.8872209009       -1.3281559669
 C         -3.0385242986       -3.0366026123        0.4003532362
 H         -2.5475178519       -3.3724712620        1.3086401222
 H         -2.4932519602       -3.4520579913       -0.4411660449
 H         -4.0390995322       -3.4554656364        0.3919164906
 C         -3.7877568549       -0.3188502450        1.8567968909
 O         -0.0411691350       -1.4788738733       -2.3012661286
 H         -4.8409556373       -0.5414610216        1.9939358419
 H         -3.6808277189        0.7616553342        1.8137030302
 H         -3.2614751217       -0.6584766091        2.7444569720
 C          0.5201024608       -0.4706148002       -1.9300774525
 C          2.0326258633       -0.2771755271       -2.1063063441
 H          2.3922159256       -1.1318020120       -2.6843050051
 H          2.2398272957        0.6148811957       -2.6945165924
 C         -0.0894798113        0.6124018137       -1.1686977435
 C         -0.8057641830        0.3214476869       -0.0463649327
 O         -1.4761918502       -0.7988474085        0.1242078465
 C          0.6840478727        1.9088902793       -1.0746694216
 C          2.3386840921        0.6522903893        0.3482146052
 C          2.8177852201       -0.2631264963       -0.7679955394
 C          3.0091495063        0.4220311939        1.6764269780
 O         -0.7814767216        1.1109606962        1.0556578958
 C          2.7437597924       -1.7116556918       -0.2333094189
 C          2.8963374681       -1.0250605070        2.1462410027
 H          2.5963739508        1.0988414206        2.4247843091
 H          4.0711431059        0.6665867332        1.5617743552
 C          3.4875788412       -1.9279894895        1.0759379241
 H          3.1472492538       -2.3819792575       -0.9948994088
 H          1.6912180274       -1.9696061750       -0.0930413337
 H          1.8451896894       -1.2771627197        2.3013643518
 H          3.4215847106       -1.1502769586        3.0953333281
 H          4.5480386277       -1.6972795350        0.9449204813
 H          3.4053413807       -2.9755802211        1.3720062702
 C         -0.1980645920        3.1414779569       -0.8104050620
 C          1.3929314891        1.5849523184        0.2145628089
 H          1.3242795464        2.0796289474       -1.9310301937
 C          0.3509913887        2.0227839411        1.2045237516
 C         -0.0987457090        3.3870321073        0.7012763583
 H          0.6605375354        4.1330141592        0.9366861957
 H         -1.0455287449        3.6890077306        1.1448755145
 H         -1.2276871538        2.9367769914       -1.1053686654
 H          0.1513119434        4.0023866607       -1.3790513396
 H          0.6080863423        1.9822776612        2.2622568667
 H          3.8662517355       -0.0336134943       -1.0005507850
