  48
        -65.76718764
 Si        -3.1552104506       -1.0855873154        0.1446593955
 C         -2.4841011088       -2.8589860063       -0.0548113487
 H         -3.2963015940       -3.5670093170       -0.1832308787
 H         -1.9162348382       -3.1710592443        0.8177684461
 H         -1.8381405297       -2.9477452820       -0.9229729311
 C         -4.5016761250       -1.0269857426        1.4838133074
 H         -4.1068541897       -1.3210009650        2.4509574892
 H         -5.3161932727       -1.7004758849        1.2406366294
 H         -4.9169162355       -0.0300438162        1.5907451469
 C         -3.7406751606       -0.3846125381       -1.5221732689
 O         -0.5820661442       -1.2050558090       -2.5500258003
 H         -4.6129407681       -0.9103703430       -1.8963909136
 H         -2.9587819488       -0.4734984586       -2.2709930790
 H         -4.0002872683        0.6673952436       -1.4379608914
 C         -0.0911472506       -0.8007051197       -1.5252950417
 C          1.0293814094       -1.5589552688       -0.8165196968
 H          0.6185307182       -1.8918015971        0.1408020165
 H          1.2665784704       -2.4391953986       -1.4194654251
 C         -0.4006523961        0.4864527565       -0.8604874504
 C         -1.0291729528        0.6548597199        0.3155477153
 O         -1.9851817255       -0.1224883641        0.8165165610
 C          0.7101862059        1.4946281690       -1.1550290167
 C          2.1176424961        0.2909252791        0.5038723480
 C          2.3473582289       -0.7824531480       -0.5354744469
 C          2.6282319511       -0.0183063244        1.8747460128
 O         -0.7499356299        1.6880887014        1.1572459691
 C          3.4329934968       -1.7552594287       -0.0633921200
 C          4.1420978335       -0.2853885098        1.8563875308
 H          2.1095448204       -0.9126888363        2.2322785642
 H          2.3993180137        0.7913283312        2.5667297388
 C          4.5812002552       -0.9592584043        0.5502739613
 H          3.7920171850       -2.3449864929       -0.9085549311
 H          3.0298849659       -2.4482213829        0.6770005648
 H          4.3975948977       -0.9172821040        2.7087096848
 H          4.6788138379        0.6569073531        1.9746092443
 H          4.8954409470       -0.1999121138       -0.1692214068
 H          5.4358190021       -1.6109213956        0.7367553746
 C          0.2132545298        2.9435292816       -1.2581577477
 C          1.4010598507        1.3644891952        0.1743455233
 H          1.2828295487        1.1945327095       -2.0297919511
 C          0.5650563394        2.2845523820        1.0147772596
 C          0.4222176481        3.5319547305        0.1467791059
 H          1.3391977025        4.1194108155        0.1982792756
 H         -0.4132641052        4.1475078506        0.4736039872
 H         -0.8388685497        2.9630713743       -1.5406435669
 H          0.7770170745        3.4956358200       -2.0092821260
 H          0.9115789030        2.4781241202        2.0301714608
 H          2.6827106512       -0.3285950697       -1.4736148651
