  48
        -65.76654917
 Si        -3.3349560358       -0.1098162175        0.5656673763
 C         -3.9190502589        1.6923519335        0.3632652286
 H         -3.5322283726        2.1218774360       -0.5573256152
 H         -3.5662256817        2.3088809325        1.1858286187
 H         -5.0007700087        1.7708976857        0.3311305832
 C         -3.7108706417       -1.1196798597       -1.0017899479
 H         -3.1462619756       -0.7590532312       -1.8572605364
 H         -4.7642290834       -1.0759730162       -1.2595099748
 H         -3.4522167535       -2.1666358078       -0.8670329048
 C         -4.0303812949       -0.9425341894        2.1241951155
 O         -0.8195741896       -0.8791489793       -2.7168137904
 H         -5.1031148821       -1.0778702425        2.0389600084
 H         -3.8399741805       -0.3508819250        3.0139267314
 H         -3.5862628463       -1.9206840011        2.2798883391
 C         -0.2092827222       -0.6928926817       -1.6941490558
 C          0.8158157495       -1.6920738684       -1.1656719979
 H          0.4635941178       -2.0335647626       -0.1901414072
 H          0.8348614449       -2.5408587109       -1.8529002141
 C         -0.2480426125        0.5413823661       -0.8713985522
 C         -0.7195386537        0.6292157828        0.3837067973
 O         -1.7050876606       -0.1180345255        0.8850978436
 C          0.9591609211        1.4285943828       -1.1840536614
 C          2.3004480076       -0.1881045127        0.1690362015
 C          2.2615150495       -1.1230435705       -1.0182983684
 C          2.6971941950       -0.7300984297        1.5137493213
 O         -0.2205500389        1.5042057304        1.2990086354
 C          3.2944924700       -2.2527079386       -0.9383812752
 C          3.7783799560       -1.8035229212        1.4491222120
 H          1.7993718097       -1.1653547942        1.9693825172
 H          3.0215179462        0.0874022945        2.1595950090
 C          3.3820172545       -2.8785704963        0.4466105297
 H          4.2742525572       -1.8384701051       -1.1905250390
 H          3.0582935033       -3.0126367149       -1.6857557843
 H          3.9179398452       -2.2364048634        2.4415584983
 H          4.7258953416       -1.3547163473        1.1424064825
 H          4.1229663198       -3.6802986111        0.4397495187
 H          2.4206008096       -3.3120651745        0.7279925033
 C          0.6709865821        2.9300935850       -1.0480357133
 C          1.7481033424        1.0198520035        0.0303227531
 H          1.3806019427        1.1812039071       -2.1553090679
 C          1.1487029629        1.9260407673        1.0692300310
 C          1.1102223526        3.2874529281        0.3805952981
 H          2.1069931664        3.7289217994        0.3894967315
 H          0.4174880988        3.9635919684        0.8774629368
 H         -0.3910316868        3.1258247189       -1.1934867066
 H          1.2263084980        3.5015354189       -1.7909146442
 H          1.6244244342        1.9306463920        2.0501458613
 H          2.4779788591       -0.5621370417       -1.9328285970
