  48
        -65.76535847
 Si        -3.4294094193       -0.0473408277        0.7063937945
 C         -3.8950361436        1.7883756567        0.9205811652
 H         -3.5532103169        2.3772501439        0.0731747353
 H         -3.4331134661        2.2024552711        1.8128466539
 H         -4.9673953994        1.9309305329        1.0059183506
 C         -3.9542002773       -0.6782087670       -1.0101003205
 H         -3.3207283868       -0.2713224329       -1.7938460193
 H         -4.9807142248       -0.4124096016       -1.2414516729
 H         -3.8764302677       -1.7603242947       -1.0714728884
 C         -4.0920690547       -1.1423507435        2.1084404765
 O         -1.0062930271       -0.8757486661       -2.7072686814
 H         -5.1753888817       -1.1858485431        2.0789549174
 H         -3.8014383618       -0.7648425857        3.0835773949
 H         -3.7188067924       -2.1581604956        2.0250827800
 C         -0.3320346865       -0.7255738947       -1.7204303749
 C          0.7140371523       -1.7518693175       -1.2888403641
 H          0.3510360441       -2.1773607071       -0.3487655342
 H          0.7338333931       -2.5419090149       -2.0436611335
 C         -0.3275884749        0.4670646472       -0.8389637462
 C         -0.7895648250        0.5225752849        0.4203986550
 O         -1.7888015715       -0.2216735766        0.8991761387
 C          0.8991322278        1.3309465007       -1.1231800050
 C          2.2368091150       -0.3369655563        0.1429083240
 C          2.1670161606       -1.2436053970       -1.0654097815
 C          2.8249101111       -0.9469518315        1.3747388325
 O         -0.2615501628        1.3531088544        1.3623037348
 C          3.1116639874       -2.4370480392       -0.8874671033
 C          4.2590141025       -1.4394937245        1.1212203642
 H          2.1975684104       -1.7964851671        1.6598431988
 H          2.8132839217       -0.2389709377        2.2026764650
 C          4.4374869751       -1.9419005297       -0.3169132646
 H          3.2737836251       -2.9249868042       -1.8500548826
 H          2.6737356552       -3.1737223457       -0.2119462242
 H          4.4860563328       -2.2389727961        1.8285450779
 H          4.9614270573       -0.6263134155        1.3093939270
 H          4.8012405714       -1.1289837859       -0.9493321715
 H          5.1819176788       -2.7387685491       -0.3429937230
 C          0.6461643904        2.8345712188       -0.9436327061
 C          1.6912721709        0.8765271286        0.0725388419
 H          1.3193682430        1.0989869824       -2.0991967268
 C          1.1152127073        1.7590527914        1.1413833651
 C          1.0967935705        3.1410930561        0.4939842455
 H          2.1005752586        3.5661353986        0.5123510053
 H          0.4167333357        3.8129336963        1.0137177961
 H         -0.4112678223        3.0592048998       -1.0808103644
 H          1.2133313225        3.4142472548       -1.6710572141
 H          1.5932384806        1.7248539022        2.1205957727
 H          2.4778788476       -0.6957384291       -1.9609351671
