  48
        -65.77296079
 Si        -2.9755291695       -1.2477131795       -0.0032003133
 C         -2.6913472442       -2.9669854377        0.7561762278
 H         -2.4556832433       -2.8803938756        1.8125474374
 H         -1.8857155845       -3.5070471551        0.2757314025
 H         -3.5967429818       -3.5577421486        0.6698360985
 C         -4.6431744870       -0.6619873130        0.7458019403
 H         -5.4488685688       -1.3343953112        0.4699422045
 H         -4.9205071265        0.3330020892        0.4087515242
 H         -4.6010589676       -0.6335594105        1.8301782909
 C         -3.1957060799       -1.0205718606       -1.8843653019
 O         -0.7225412419       -1.7547974317       -0.8412067663
 H         -2.7040969756       -0.1125817707       -2.2224292451
 H         -4.2456701388       -0.9503424941       -2.1489743802
 H         -2.7653826628       -1.8463252223       -2.4387323146
 C          0.0022313517       -0.7864794122       -1.0759150009
 C          1.4388351631       -1.0678792666       -1.5131801835
 H          1.5968734550       -2.1203159974       -1.2672689553
 H          1.4655462929       -0.9849131285       -2.6027306179
 C         -0.3825531969        0.5665229257       -0.8282906831
 C         -1.0867172495        0.7046412559        0.3588384255
 O         -2.0233023048       -0.0762478981        0.7735109566
 C          0.5879483454        1.6930204750       -1.1360329533
 C          2.2299940084        0.5343963550        0.3227800839
 C          2.6184851758       -0.2234631320       -0.9291240709
 C          2.6351712479        0.0512138496        1.6857496218
 O         -0.7665257436        1.6398239802        1.2666446871
 C          3.8603609314       -1.1060316540       -0.7488305961
 C          3.9271955455       -0.7579008264        1.6994028118
 H          1.8221691312       -0.5889722608        2.0508479683
 H          2.7110532438        0.8977113390        2.3715037306
 C          3.8842324712       -1.8109485094        0.6002393248
 H          4.7503957020       -0.4755394636       -0.8206767898
 H          3.9078749911       -1.8313363966       -1.5635126077
 H          4.0490875924       -1.2264823361        2.6777429978
 H          4.7820347811       -0.0977940039        1.5348470762
 H          4.7600701278       -2.4595655805        0.6616111841
 H          2.9937010238       -2.4309742638        0.7203075430
 C         -0.0555456035        3.0865606757       -1.0947043110
 C          1.3643302768        1.5331230640        0.1427184972
 H          1.1151388654        1.5129965751       -2.0679317315
 C          0.5039250558        2.3153884027        1.0928162095
 C          0.2306334652        3.6063491841        0.3228088484
 H          1.1196447371        4.2367303930        0.3414139290
 H         -0.6053376530        4.1566197212        0.7498940294
 H         -1.1286184683        3.0175132541       -1.2764027080
 H          0.3745514134        3.7402467145       -1.8524104026
 H          0.8944894269        2.4586458251        2.1004549823
 H          2.8785542129        0.5273304328       -1.6834490015
