  48
        -65.77234226
 Si        -3.1412582169       -0.2174519846       -0.1153142910
 C         -4.0339191566       -1.5189275174       -1.1636747726
 H         -3.3565607433       -2.3234033958       -1.4319928540
 H         -4.4135909497       -1.0927850353       -2.0868649993
 H         -4.8740426088       -1.9463493885       -0.6269685616
 C         -2.6813671057       -0.8624724447        1.6187910722
 H         -2.0348523739       -0.1647787663        2.1439597714
 H         -2.1563484218       -1.8114981152        1.5514966339
 H         -3.5628195373       -1.0187911320        2.2324714383
 C         -4.1061484531        1.4211864307        0.0121737212
 O          0.0887517685       -1.7570879869       -1.9312657133
 H         -4.2936967043        1.8402858063       -0.9728541324
 H         -3.5552668417        2.1624753700        0.5839362451
 H         -5.0674401519        1.2773220830        0.4948618011
 C          0.8633453784       -0.8830786385       -1.5936435973
 C          2.3114649926       -1.2382798805       -1.2398711122
 H          2.3578380715       -2.3267748145       -1.2971927420
 H          2.9345659832       -0.8491592450       -2.0484932499
 C          0.5059293393        0.5066196031       -1.3743133151
 C         -0.7035833931        0.7113527673       -0.7598318193
 O         -1.7618180875       -0.0001224769       -1.0311451268
 C          1.5963624908        1.4845327407       -0.9723238753
 C          1.9857444508        0.0467804355        1.0015270041
 C          2.9133334919       -0.7804551523        0.1327490372
 C          1.5929048716       -0.5523508844        2.3155731383
 O         -0.8674232980        1.5920765215        0.2519642391
 C          3.4121111064       -1.9894360951        0.9293905407
 C          1.1217440015       -1.9800533360        2.0272838415
 H          0.7888448675        0.0264722546        2.7718155162
 H          2.4329302877       -0.5692993886        3.0145354754
 C          2.2677746279       -2.8434703161        1.4815730924
 H          4.0230257259       -1.6236738137        1.7577093984
 H          4.0599626830       -2.6040075092        0.3013089934
 H          0.3218373398       -1.9243576375        1.2857686617
 H          0.7064491902       -2.4268431749        2.9319682622
 H          2.6667914013       -3.4847633720        2.2701399334
 H          1.8798567094       -3.4960168925        0.6988656085
 C          1.2039948172        2.9589669748       -1.1442260247
 C          1.4904582130        1.1730993402        0.4954108649
 H          2.5432133486        1.2544886279       -1.4492095793
 C          0.3468956947        2.0625338726        0.8912933252
 C          0.7142400724        3.3965566425        0.2451556493
 H          1.5129903281        3.8704624245        0.8159179203
 H         -0.1400517043        4.0695768016        0.2013295692
 H          0.4114007836        3.0576458337       -1.8864572138
 H          2.0529965967        3.5568127065       -1.4731571702
 H          0.1162638386        2.1213294469        1.9556142501
 H          3.7883537513       -0.1583630763       -0.0946909218
