  48
        -65.77230281
 Si        -3.0366243098       -0.3565049468        0.0632978104
 C         -4.0002576379       -1.5956200248       -0.9982067466
 H         -4.7932386288       -2.0662200333       -0.4270105420
 H         -3.3448870202       -2.3747464358       -1.3741338721
 H         -4.4537092363       -1.1118897872       -1.8573811373
 C         -2.4004185621       -1.1305901304        1.6858469556
 H         -1.8109570672       -2.0208390530        1.4809130609
 H         -3.2180422817       -1.4232453754        2.3367610397
 H         -1.7743878769       -0.4345569326        2.2378668493
 C         -4.0236125119        1.2338851669        0.4188970513
 O          0.1531385508       -1.5224352632       -2.4300770874
 H         -4.9294302596        1.0206687341        0.9773081435
 H         -4.3163630852        1.7241748628       -0.5057539926
 H         -3.4376202719        1.9441633062        0.9949217485
 C          0.8705917581       -0.6663912180       -1.9559661280
 C          2.3435921416       -0.9498920678       -1.6297153490
 H          2.5795378583       -1.9193613171       -2.0744933518
 H          2.9921057145       -0.2157392285       -2.1033014662
 C          0.4372524858        0.6384896448       -1.4849837829
 C         -0.7010646847        0.7103432101       -0.7305507697
 O         -1.7517924794       -0.0360162886       -0.9504719641
 C          1.5076228334        1.6156516546       -1.0525026939
 C          2.0661189611        0.0133066727        0.8100661245
 C          2.6325178702       -1.0602388614       -0.1073805634
 C          2.1357187358       -0.3020479349        2.2812786102
 O         -0.7963749815        1.4918417937        0.3739138883
 C          2.0349590330       -2.4158046428        0.3296539948
 C          1.5380804208       -1.6585570071        2.6389507330
 H          1.6518754306        0.4890835710        2.8548718969
 H          3.1949048739       -0.3084772180        2.5638843328
 C          2.2243985052       -2.7285527078        1.8062126544
 H          2.4948313341       -3.2048462683       -0.2686823161
 H          0.9672972135       -2.4081008862        0.0970850412
 H          0.4683693025       -1.6560072654        2.4236153358
 H          1.6700488297       -1.8511503758        3.7057480200
 H          3.2902523350       -2.7555522398        2.0470456460
 H          1.8048356299       -3.7119182726        2.0277395573
 C          1.0459839127        3.0831504022       -1.0595443386
 C          1.5635098054        1.1749470868        0.3860691693
 H          2.4293283240        1.5070666222       -1.6098133816
 C          0.4424124354        1.9963170757        0.9579184969
 C          0.6760003993        3.3922069095        0.3974771321
 H          1.5019304228        3.8657617425        0.9286333921
 H         -0.2106390659        4.0171388086        0.4863208691
 H          0.1823669733        3.2019027924       -1.7144260271
 H          1.8359249516        3.7413189178       -1.4190956232
 H          0.2820639181        1.9548131646        2.0350276252
 H          3.7221901501       -1.1068841657        0.0215467377
