  48
        -65.77223603
 Si        -2.7586576315       -1.3994879885        0.6146769779
 C         -1.5229211221       -2.1690330633        1.8448094184
 H         -0.8291478809       -2.8266908627        1.3280333114
 H         -2.0268981509       -2.7565996452        2.6055177428
 H         -0.9383098916       -1.4059586019        2.3519176699
 C         -4.0095181545       -0.2875071637        1.5266061843
 H         -4.6469101359       -0.8691850258        2.1848708014
 H         -4.6537291834        0.2335883926        0.8234606917
 H         -3.5081275417        0.4644935452        2.1289265436
 C         -3.5980373690       -2.6906131165       -0.4890892578
 O          0.0454122448       -1.3973338484       -2.1829599636
 H         -4.3861067082       -2.2486291804       -1.0907219984
 H         -4.0405662645       -3.4843217046        0.1031292837
 H         -2.8787794688       -3.1349528274       -1.1696044527
 C          0.5559379473       -0.3336961610       -1.8884433774
 C          2.0762424911       -0.1632712359       -1.9888484783
 H          2.4530429294       -1.1527254075       -2.2521076523
 H          2.2598978534        0.4872105813       -2.8472637314
 C         -0.1507019421        0.7985231890       -1.3191050123
 C         -1.1135053230        0.4814665565       -0.3935539418
 O         -1.9226725547       -0.5298876645       -0.5393645226
 C          0.6262504954        2.0679005549       -1.0178814747
 C          2.0594943571        0.7042615551        0.4642714949
 C          2.8884828608        0.3745985733       -0.7614743077
 C          2.3230110278       -0.1154029394        1.6883579134
 O         -1.2304855210        1.1266864515        0.7877149354
 C          3.9981983365       -0.6082745268       -0.3773343312
 C          2.3092351940       -1.5820873353        1.2507342867
 H          1.5518124720        0.0642080502        2.4387257719
 H          3.2894956232        0.1329778081        2.1343732693
 C          3.4597226786       -1.8819518614        0.2802118911
 H          4.6744332721       -0.1024025032        0.3154989788
 H          4.5827384532       -0.8693627057       -1.2616458033
 H          1.3551540344       -1.7737955965        0.7555772584
 H          2.3683626039       -2.2344644305        2.1233259456
 H          4.2816913484       -2.3700847311        0.8078986625
 H          3.1085396834       -2.5760830687       -0.4838984689
 C         -0.2623154480        3.2984590684       -0.7867070207
 C          1.0860260981        1.6018341909        0.3360620376
 H          1.4000025392        2.2534393921       -1.7554068664
 C         -0.1060763564        1.9557534441        1.1778781940
 C         -0.4194901481        3.3848590999        0.7396988226
 H          0.3100391772        4.0678891376        1.1751315924
 H         -1.4188024634        3.6879218283        1.0466509492
 H         -1.2296160324        3.1657727168       -1.2721013506
 H          0.1989494825        4.1988373165       -1.1904448771
 H         -0.0028903829        1.8231020163        2.2554231267
 H          3.3767015977        1.3029864646       -1.0840022155
