10
	Energy:       5.9365126
C         -0.66986       -0.83381       -0.32410
C         -1.90084       -1.34649        0.37164
N         -2.47817       -2.48931       -0.33062
H         -2.65232       -0.52980        0.43632
H         -1.62033       -1.65689        1.40074
O         -0.26208       -1.35874       -1.35043
O         -0.00899        0.21916        0.20086
H         -2.82389       -2.17859       -1.26771
H         -3.30381       -2.83043        0.21238
H          0.78763        0.57577       -0.21707
