12
 energy: -21.591020664875 gnorm: 0.000692836342 xtb: 6.2.3 (830e466)
C         0.90008558075609    1.45062663472691   -2.37170404633271
C        -0.41785232016706    2.20438574741372   -2.29324782789814
C         2.62156747332631   -0.32100298835273    0.12989472001626
O         1.13899164369991    0.95086157967973   -1.06848420560157
O         2.37029469148640    0.23703774335142   -1.05374110698524
O         3.60666527203862   -0.95640459242202    0.32785448171055
H        -0.34027226527849    3.01915202218562   -1.57883933283543
H         1.71886098700500    2.11595348258343   -2.66997335380052
H         0.83771580548774    0.61828560056849   -3.08274400425469
H         1.82556757624458   -0.12212487542743    0.87137173671090
H        -0.66056285610242    2.60749671045057   -3.27193348043975
H        -1.21206158849661    1.53532293524202   -1.97425358028989
