12
 energy: -21.513680355560 gnorm: 0.000954987364 xtb: 6.2.3 (830e466)
C         0.81472286696144    1.51097638307086   -2.21370205783939
C         0.71659278195632    0.87410359531307   -0.84654416704235
C         1.76407964101807    0.58570814319978   -0.14022260093900
O         0.84804883981948    2.91649953643257   -2.16647329494758
O         2.12079219212011    3.33932383523988   -1.67778433808435
O         2.70449751151073    0.27195131103333    0.46312975153393
H         1.95143204947825    4.25647105673982   -1.42595611001657
H         1.69680673090073    1.14088827075040   -2.74862687802610
H        -0.08746923155620    1.30396653850644   -2.79320967169092
H        -0.08184048575942   -2.17604606170444   -2.20118679700701
H         0.19649452564071   -1.51198852449648   -1.89959910160606
H        -0.25516742208049    0.82774591591957   -0.38563473435255
