12
 energy: -21.562638201261 gnorm: 0.000302757760 xtb: 6.2.3 (830e466)
C         1.84381422206131    1.47239104710317   -2.14839238507021
C         1.08009168507994    0.76265262684780   -1.07321333526854
C         0.62399760106163   -0.47532014081995   -1.19483903948939
O         1.12379012669114    2.53113278875577   -2.74132205697866
O         0.96638054708290    3.59028251237270   -1.79141471799269
O        -0.07612694451811   -1.15796216051314   -0.26229651718335
H         0.54793407310880    4.27526263994208   -2.32757853875269
H         2.79238089367590    1.85967628830224   -1.75112481007549
H         2.04067130685813    0.81102449721421   -2.99508023943609
H         0.79936111335665   -1.07918294617640   -2.07374332055451
H        -0.23200931003497   -0.59501161447821    0.50711167817767
H         0.87872468557665    1.34467446144976   -0.18390671737607
