12
 energy: -21.604377437714 gnorm: 0.001003724435 xtb: 6.2.3 (830e466)
C         1.19475140555837    1.14083084396030   -2.82771982040560
C         0.13302321422880    0.97994087185821   -1.74140827092032
C         1.06143510450635    0.93786094576906   -0.52558126189424
O         2.28036065920523    0.35536234176004   -2.39390193750243
O         1.30603207658199    2.24732648982473   -0.10673321881967
O         2.22152587178406    0.29214745031673   -0.95799139072987
H         2.09100745174742    2.25703983849444    0.45185250453190
H         1.49116857518961    2.19464655338387   -2.91743432549919
H         0.89762443527381    0.74678875025670   -3.79959538048021
H         0.67077445095500    0.33262062634879    0.30801103062622
H        -0.40364262826762    0.03857674297784   -1.84238995334279
H        -0.55506061676303    1.81647854504930   -1.68289797556382
