12
 energy: -21.604374768583 gnorm: 0.000823064329 xtb: 6.2.3 (830e466)
C         0.65888224951966    1.28576476377540   -2.77527872610337
C         0.52058381088835    0.32979585660476   -1.59142942587380
C         1.22718166902702    1.17830541052400   -0.53192346765404
O         0.51335794286236    2.57359717158620   -2.22290165032150
O         0.92562193467760    2.50494120982128   -0.84739136805777
O         2.59693707830871    0.91550609994844   -0.59150474866854
H         3.07345596527787    1.62113994336566   -0.13863478371165
H         1.64669001935049    1.17476370619356   -3.24166072634819
H        -0.12717659587370    1.18037499074793   -3.52270765113233
H         0.84655256594359    1.01721150479046    0.48906616393132
H         1.02909895111431   -0.61681816723609   -1.74036268912022
H        -0.52220559109627    0.17500750987843   -1.32107092693990
