12
 energy: -21.563364776964 gnorm: 0.000626971695 xtb: 6.2.3 (830e466)
C         1.03842769265098    0.95166106594310   -1.82471960915098
C         0.13462438462509    1.02648626889428   -0.58772797504114
C         1.91670315545573   -0.28077850729106   -1.75892526064625
O         1.87296044514502    2.07370886023738   -1.95291499115259
O         1.08332455237082    3.20069694583190   -2.33717027976427
O         3.10452397847158   -0.31734893472705   -1.85817004974281
H         1.76290316145643    3.86345486823801   -2.51550143689785
H         0.74215183140476    1.06781961042368    0.31279073124008
H         0.41023448471110    0.85920457805492   -2.72675637852075
H         1.31131460816439   -1.19492147325303   -1.59451373108591
H        -0.51958365642518    0.16101688266286   -0.54597962844367
H        -0.46858463803069    1.92858983498502   -0.64621139079385
