12
 energy: -21.638945464986 gnorm: 0.000287655071 xtb: 6.2.3 (830e466)
C         1.67482989349526    2.08340472320651   -2.22762450402434
C         0.21397754738169    0.53509178989751   -1.20729165373167
C         1.12520158525524   -0.61495599240762   -0.84979410960166
O         0.57537224658797    1.22595801378605   -2.38092352079313
O         1.37954230427406    3.18685445090540   -1.42882072001507
O         2.12548334318345   -0.93028128837439   -1.42358215647077
H         0.67518200941197    3.69902292815647   -1.84527885731560
H         2.52139824172923    1.58040914139137   -1.74759812343820
H         1.94852362498548    2.37690793085187   -3.24936807793818
H         0.76589235890450   -1.16403498775049    0.04549781160858
H        -0.79349235608875    0.14223311072662   -1.37629011447242
H         0.17708920087999    1.21899017961079   -0.34472597380735
