12
 energy: -21.579051728032 gnorm: 0.000385006140 xtb: 6.2.3 (830e466)
C         1.81100647813897    1.33185211022045   -2.31880124404095
C         0.18775825329623    0.09496085149831   -0.77918380122026
C         1.57270974521594    0.18058418578576   -1.33775409962900
O         0.78101037637560    2.27909124038239   -2.40983245164783
O         0.72110301154180    3.06155124854418   -1.22059854651502
O         2.46597168350429   -0.58066429391765   -1.07136197714812
H         0.65938468158932    3.96705534549569   -1.55322109966920
H         2.77253128892481    1.80651458018382   -2.08265995590174
H         1.87004495630854    0.91509051160517   -3.32942936878053
H         0.06996214581417   -0.81227056078709   -0.19443688890368
H        -0.53759504181770    0.12934052351436   -1.58893054429164
H         0.01512242110802    0.96648425747453   -0.14960002225193
