12
 energy: -21.667291102852 gnorm: 0.000886403806 xtb: 6.2.3 (830e466)
C         1.25605536355166    1.20089699095024   -2.22496325394782
C         0.23903590872746    1.98769234863214   -1.38307410856027
C         1.60369863928824   -0.80469943440561   -1.06241875882433
O         1.04459563431613   -0.20566698072907   -2.09975006673804
O         0.39328411887012    3.37147797914570   -1.54024112041259
O         2.28304885349612   -0.29494073604461   -0.22189582528361
H         1.24203814050832    3.64149282399424   -1.17024403699215
H         2.27536655419243    1.44172214776236   -1.90002309755231
H         1.13499837328071    1.43486314192660   -3.28396496773858
H         1.35218257104791   -1.87750649455105   -1.09794067097379
H        -0.77357675472124    1.75388807491217   -1.72121008087091
H         0.33827259744210    1.69037013840689   -0.33007401210560
