12
 energy: -21.527981017994 gnorm: 0.000676669194 xtb: 6.2.3 (830e466)
C         3.04086190641740    0.44197866493328   -2.21677110089403
C         1.82661828745349    0.74303076890527   -1.76720171189619
C         0.92417870321441   -0.28250244807655   -1.25566842053927
O        -1.35247134489393    2.48789244882096   -0.84900504445588
O        -0.21107433460590    3.24195712176111   -1.24180616878248
O        -0.19225943850501   -0.07749252717651   -0.83983102370189
H        -0.55128412337673    4.14427629627635   -1.20619931969782
H         3.71142011170057    1.19322552740439   -2.59774776941477
H         3.40420220206426   -0.57385861562923   -2.22037278337620
H         1.33787552315242   -1.30784237187965   -1.26957163890698
H        -1.00091387229651    1.57111523409990   -0.81230209468892
H         1.45185637967514    1.75782990056262   -1.75933292364733
