12
 energy: -21.513236048619 gnorm: 0.000776180738 xtb: 6.2.3 (830e466)
C         1.41865626089646    1.59231184338338   -2.85810618111388
C         1.10181953354586    0.49585582086361   -1.86894053897808
C         1.84078804527648    0.26684274958490   -0.82990909483066
O         0.81520524741269    2.82073987852020   -2.53431468922537
O         1.48575051555132    3.38947763658520   -1.40842747880836
O         2.53409286325223    0.02135432768586    0.06849323969771
H         0.91276607245152    4.13353792866244   -1.18400344634157
H         2.50218017436110    1.72741102068834   -2.94805916329469
H         0.98917427107640    1.35653157353830   -3.83375801561313
H        -0.99167001055596   -1.40406992900449    0.81907937381002
H         0.14743745044834    0.00638576195466   -1.95698406485375
H        -0.36720042371149   -1.06678861246435    0.49913005955271
