12
 energy: -21.510035009050 gnorm: 0.000764708157 xtb: 6.2.3 (830e466)
C         1.39951081953032    1.71539785300474   -1.21178563001234
C         0.83324794177102    0.59670214017584   -0.73491698269780
C         1.64492653254358   -0.58894819013464   -0.52070319396430
O         0.69552672650051    2.82666416678702   -1.42672723346063
O         1.50532556332049    3.87365792993720   -1.94079940984879
O         2.83028991022252   -0.67758399657090   -0.73458549832912
H         0.86896971372520    4.58624100181494   -2.09660154333903
H         2.45842913454880    1.75181335569357   -1.44241837416406
H        -0.13439771026953    0.09993077540769   -3.32160184238933
H         1.07195248243240   -1.45300003336008   -0.13378891524435
H        -0.56586049388785    0.05147720381333   -3.96764288219723
H        -0.21894062043050    0.55725779342918   -0.50423849434971
