12
 energy: -21.670570158448 gnorm: 0.000776846523 xtb: 6.2.3 (830e466)
C         1.18115153074994    0.78096265586690   -2.49018458142911
C         0.63056856778528    0.87341737151498   -1.05420198796595
C         1.61882326105963    1.59707838013421   -0.15960848134038
O         0.22926803318209    0.27781707409622   -3.38983770904182
O         1.67387394064103    2.92787602272877   -0.33906590964463
O         2.32410553991470    1.05151834403682    0.63581073165190
H         1.04711551721609    3.24332823156981   -1.00383241810245
H         2.09254473411297    0.16789395923957   -2.49038498476806
H         1.43696886829467    1.77511882939912   -2.87018626054711
H         0.00799562100886   -0.62782952116132   -3.14612399611714
H         0.47240298010352   -0.13031549964338   -0.65617444409385
H        -0.32582859406877    1.40274415221830   -1.07201995860138
