12
 energy: -21.525513582630 gnorm: 0.000872906165 xtb: 6.2.3 (830e466)
C         1.68395961093679    0.82093356985616   -2.82098904314157
C         1.23832536807460   -0.21594650695700   -2.11558167911336
C         1.31668875107205   -0.26164874289711   -0.65599406514408
O         0.88212113686159    3.24035070272219   -0.66091443787191
O        -0.34575396426839    2.84209326004229   -1.25684996174467
O         1.61860233547293    0.66128173136992    0.06457998344400
H         1.22296113903466    2.39409537949414   -0.29820137735155
H         2.12457346118719    1.67649477192711   -2.33541008882087
H         1.62424412734022    0.84846472296628   -3.89583472106821
H         1.06953172367517   -1.24648291828321   -0.22035045723627
H         0.80662043857739   -1.08283230672829   -2.59509363760841
H        -0.85286412797829    3.66277633648650   -1.24515051436220
