12
 energy: -21.522099687789 gnorm: 0.000400674761 xtb: 6.2.3 (830e466)
C         0.65551739415480    1.52873055576418   -2.63520888397931
C         0.65231043135657    0.40197239521171   -1.60132096427234
C         1.77038281434115    0.64783276090119   -0.58742868887981
O         0.73688824322050    2.80945920881198   -1.99621239770308
O         0.62977164590541    2.67383717805567   -0.61177422223429
O         1.75434656374542    2.00537380581171   -0.12696236499695
H         2.75208294738627    0.49239758664675   -1.04894105980091
H         1.53438125830480    1.45442672353537   -3.28556367614171
H        -0.25322659391924    1.50411267045413   -3.24610515596995
H         1.66657432380582   -0.01282191417143    0.27996492126346
H         0.79897108263892   -0.55679929960858   -2.09360187728144
H        -0.30899011094042    0.39107832858733   -1.08264563000367
