12
 energy: -21.614991743686 gnorm: 0.000935273496 xtb: 6.2.3 (830e466)
C         0.38463250623133    0.78221851016296   -2.94829845350682
C         0.34322787582307    0.62058751206259   -1.45484913174133
C         1.29192177937745   -0.43708279809590   -0.97138001918998
O        -0.56642417101883    1.01696952547110   -3.63660221835589
O         1.80268126745508    3.20515937250576   -0.55117144756201
O         2.36691070823263   -0.67093220061194   -1.44655364356095
H         1.66772618610804    4.07864238976046   -0.92542846253146
H         2.75033640240998    3.06315999354102   -0.49121654161576
H         1.39879662914508    0.66033460014597   -3.36932642289684
H         0.91379589369805   -1.00971071522755   -0.10302872629336
H        -0.67433756733910    0.45887555064331   -1.10076294394955
H         0.70973248987166    1.57137825964328   -1.03718198879098
