12
 energy: -21.629659375784 gnorm: 0.000471206410 xtb: 6.2.3 (830e466)
C         0.87309650147999    1.39161448669456   -2.43267629551257
C         0.95550603644613    0.95334518499757   -0.95093964020258
C         1.82316446174676   -0.28584622708548   -0.85826230612759
O         0.20145800222770    2.61823366742704   -2.54251445190526
O         1.45587915854676    1.99259946340268   -0.16145703860535
O         2.93422447544318   -0.33453877959331   -0.42833294307633
H         1.34176839527182    2.82213493267153   -0.64761585978992
H         1.88262701843980    1.57401165809830   -2.80941580480759
H         0.39794322000769    0.60891731010094   -3.03608181621296
H         1.30910026418469   -1.18385432809116   -1.26111010902522
H        -0.06049970772017    0.67878460151435   -0.60721881356491
H        -0.72527782607434    2.50419802986298   -2.30018492116973
