12
 energy: -21.511805440727 gnorm: 0.000309269779 xtb: 6.2.3 (830e466)
C         0.55912785290719    1.62049380590358   -1.78810748402515
C         0.98768417543296    1.20024478952431   -0.59452193534774
C         1.05498151897084   -0.21113534345327   -0.26666607426366
O         0.44086675423665    2.87146981552847   -2.23603665118496
O         0.82591581264800    3.85513292856883   -1.28585921135159
O         1.44064561517860   -0.66377421631978    0.78198925036588
H         0.69613629805444    4.67918176352812   -1.77649416176810
H         2.10435689859335   -0.81343512453476   -3.34182799657510
H         0.23913982850197    0.95274173618848   -2.57991661787019
H         0.71126971097917   -0.87854158095764   -1.08418893666028
H         2.03186491811246   -1.18028018178549   -4.02408937760876
H         1.29700061638228    1.90751160780926    0.15990919629046
