12
 energy: -21.561986097977 gnorm: 0.000699087226 xtb: 6.2.3 (830e466)
C         1.85589548270201    2.45244703176869   -2.69684614319715
C         0.01602055201033    0.57123562578549   -0.64237117347879
C         1.14698398823608   -0.43385581742937   -0.66559939673158
O         0.56769372651710    1.95901745433596   -2.42141174475711
O         0.35725583717178    1.87702936375192   -1.01250722757798
O         2.28099998613841   -0.21906319789879   -0.97254264164367
H         1.98620912537416    3.45970893841546   -2.29284494667522
H         2.62990467738421    1.78803245802510   -2.30386886120680
H         1.89768307246798    2.47850274135070   -3.78440295519216
H         0.80383371438566   -1.44349806852278   -0.36123787193165
H        -0.80272888110614    0.18594774978971   -1.26794147454263
H        -0.35075128128143    0.66410572062793    0.38578443693479
