12
 energy: -21.650323138469 gnorm: 0.000733705255 xtb: 6.2.3 (830e466)
C         1.31600725360003    1.94823014273899   -1.59797957300627
C         0.54138066540167    0.81682066066681   -0.88764551892025
C         1.13204035136614   -0.53319677029296   -1.14052239518577
O         1.36630012290980    1.76048826047567   -2.97867969433903
O         0.68636359982727    3.16583250485461   -1.35099276718016
O         1.94781754482598   -0.78475782269554   -1.98704902679094
H         0.52278877588796    3.57418147676212   -2.20994737441663
H         2.34163164835314    1.98605631077074   -1.17767701631174
H         1.78262414594494    0.90300831487035   -3.15293418603894
H         0.74093096072832   -1.32640561118316   -0.47588094074030
H        -0.48793274901569    0.80894439761144   -1.25907227317397
H         0.49904768017045    1.02038813542094    0.18259076610403
