12
 energy: -21.536394548835 gnorm: 0.000817001658 xtb: 6.2.3 (830e466)
C         2.38404472857638    2.20382313936707   -0.56116302382740
C         1.36083298074739    2.27943442505679    0.27108443001829
C         0.18660025735377   -0.75800112569283   -3.43092999769374
O         0.71629540138217    0.04106154900980   -2.50018706334902
O        -0.12010087752190    1.13306791698487   -2.18519744877191
O         0.75456395264344   -1.72815514825673   -3.81512945456049
H         0.40038580720773    1.60112786606543   -1.49333111779546
H         2.69303141351043    3.04320993523249   -1.16347860926146
H         2.96176392208416    1.30104236530343   -0.67503789708648
H        -0.80587878316449   -0.41003556644052   -3.76995840594448
H         1.06554012596475    1.44602432078681    0.88873115951317
H         0.79192107121612    3.18700032258392    0.39877742875898
