12
 energy: -21.613416060262 gnorm: 0.000773344585 xtb: 6.2.3 (830e466)
C         1.04069191524689    1.21047782180088   -1.43870319909680
C         0.32014571124325    0.09551319040133   -0.72805552924508
C         1.14293398918487   -1.17200070186226   -0.76372971283503
O         0.52400561543319    1.94881817789168   -2.22859285150565
O         1.95440395958809    4.38952426078935   -2.97062142098606
O         2.29972059438894   -1.23588299316304   -0.47128059926057
H         1.40735734587567    4.94220751847839   -3.53221814881831
H         2.10731788973367    1.28729004093142   -1.17248358868055
H         1.45098745127189    3.58152684570785   -2.81018106567429
H         0.57848086499683   -2.06120228814043   -1.09807051851683
H        -0.67754816846160   -0.04820223256791   -1.14161162095017
H         0.24050283149685    0.40151035973134    0.31975825557155
