12
 energy: -21.629659838922 gnorm: 0.000812820245 xtb: 6.2.3 (830e466)
C         0.94087247780914    1.14716059024828   -2.48234482088541
C         0.91381175004052    1.07424965393109   -0.93624926220885
C         1.89935125600924    0.01560788113809   -0.48268047961213
O         0.15898593670112    2.22044735326387   -2.93405018209025
O         1.20923046786858    2.32315888299252   -0.38298285201662
O         2.95680210394598    0.21541427958767    0.03117143346248
H         1.06543098427261    2.99700804785285   -1.06307858485485
H         1.95955957676885    1.36557631103591   -2.81230425002566
H         0.61691532326645    0.19307101253735   -2.91435256287540
H         1.53482820219190   -1.01158760913579   -0.69726832094401
H        -0.77105086894237    2.04665377496512   -2.74572516522882
H        -0.09572720993201    0.75282982158302   -0.61594495272048
