12
 energy: -21.600520030025 gnorm: 0.000954426772 xtb: 6.2.3 (830e466)
C         1.14663471871067   -0.02918580705093   -2.34626828615168
C         0.56504295472002    0.53077899635902   -1.04466695563121
C         1.53106954238825    1.51173222549196   -0.44201357531479
O         1.54941441919314    2.76974831593072   -0.94659510883287
O         0.61462493528159    3.04190991050157   -1.97609202859099
O         2.31322201711347    1.28655069386730    0.43499226181313
H         0.77805742930142    3.98144186659586   -2.14838352621855
H         2.10613671264531   -0.50417344666102   -2.15622475021150
H         1.28421946281140    0.76468229734026   -3.07593979181297
H         0.46730123708810   -0.76776785140361   -2.76309192548915
H        -0.38432091315795    1.02768295362554   -1.24712754305671
H         0.41760748390475   -0.27380015459665   -0.32441877050259
