47
	Energy:      61.3719588
C          5.55269       -6.76276        0.13203
C          4.69741       -6.87432        1.44417
C          4.61557       -5.58014        2.29264
H          5.21618       -7.57099        2.14147
H          3.70928       -7.34161        1.24361
C          3.94786       -4.43077        1.59211
H          5.65461       -5.26791        2.52772
H          4.11629       -5.81602        3.25611
C          6.50830       -7.97121        0.04780
H          7.17117       -8.01135        0.93834
H          7.16288       -7.89111       -0.84732
H          5.93689       -8.92299       -0.01455
C          4.73169       -6.76115       -1.19471
H          6.21050       -5.86748        0.19098
C          3.73519       -5.65040       -1.40977
H          4.15950       -7.71173       -1.25113
H          5.45321       -6.75813       -2.04309
C          3.78185       -4.84240       -2.48763
C          2.73986       -3.81316       -2.70540
C          2.94615       -3.64990        2.07698
C          2.40042       -2.57004        1.18815
C          2.41487       -3.84478        3.48457
H          1.63518       -3.10696        3.75680
H          3.24717       -3.71115        4.21012
H          1.98104       -4.85781        3.60908
O          2.88128       -2.44963        0.06789
C          1.27584       -1.63689        1.61264
C          0.78094       -0.67456        0.54592
H          1.63271       -1.04194        2.48080
H          0.40318       -2.24707        1.93027
S         -0.51864        0.50629        0.96438
C         -0.83208        1.10369       -0.73479
H          0.09958        1.50224       -1.19010
H         -1.55185        1.94554       -0.68873
H         -1.27655        0.29646       -1.35426
O          1.24245       -0.68725       -0.58706
C          2.70398       -3.04717       -3.80682
C          1.62588       -2.04690       -3.98056
C          1.51599       -1.31048       -5.08906
H          4.35333       -4.21289        0.61522
H          0.89379       -1.90515       -3.19025
H          2.21444       -1.41759       -5.91294
H          0.70768       -0.59025       -5.17867
H          1.96506       -3.69186       -1.95481
H          3.45708       -3.16590       -4.58320
H          2.92523       -5.54243       -0.69592
H          4.57101       -4.96044       -3.22728
47
	Energy:     117.0569572
C          4.97431       -7.01023       -0.34909
C          4.90511       -6.00535        0.85476
C          5.13071       -4.46713        0.60023
H          5.80414       -6.24682        1.46707
H          4.04776       -6.21866        1.52940
C          4.18832       -3.31904        0.04534
H          6.08980       -4.37892        0.04481
H          5.35421       -4.11027        1.63094
C          5.76867       -8.27730        0.00767
H          6.80373       -8.00761        0.31224
H          5.84933       -8.93932       -0.88210
H          5.28403       -8.83581        0.83501
C          3.56252       -7.44603       -0.84003
H          5.56752       -6.52614       -1.15517
C          2.76104       -6.22313       -1.06498
H          3.06309       -8.04601       -0.04832
H          3.62967       -8.06206       -1.76438
C          3.23566       -5.33763       -1.93148
C          2.77925       -3.93662       -1.99384
C          2.86787       -3.10478        0.78444
C          1.68919       -3.23844        0.09475
C          2.90438       -2.67002        2.23266
H          2.43657       -1.67605        2.37050
H          3.94406       -2.58617        2.60806
H          2.36855       -3.41059        2.86285
O          1.66508       -3.68566       -1.19110
C          0.34895       -2.84231        0.68752
C          0.23430       -1.33380        0.79831
H          0.16751       -3.34306        1.66093
H         -0.44879       -3.16212       -0.01698
S         -1.31526       -0.57361        1.29427
C         -1.43059        0.46657       -0.20470
H         -0.57500        1.17365       -0.26020
H         -2.35460        1.07706       -0.14823
H         -1.49103       -0.16459       -1.11611
O          1.17389       -0.60603        0.50904
C          3.97007       -3.09622       -1.49593
C          3.66148       -1.62785       -1.77580
C          3.49230       -1.15711       -3.01550
H          4.81345       -2.42890        0.29384
H          3.57807       -0.92311       -0.95232
H          3.57101       -1.80770       -3.88040
H          3.27374       -0.10591       -3.17007
H          2.51563       -3.72263       -3.04875
H          4.91309       -3.32114       -2.04573
H          1.91678       -6.01681       -0.41342
H          4.10672       -5.57909       -2.53829
