47
	Energy:      61.3719588
C          5.55269       -6.76276        0.13203
C          4.69741       -6.87432        1.44417
C          4.61557       -5.58014        2.29264
H          5.21618       -7.57099        2.14147
H          3.70928       -7.34161        1.24361
C          3.94786       -4.43077        1.59211
H          5.65461       -5.26791        2.52772
H          4.11629       -5.81602        3.25611
C          6.50830       -7.97121        0.04780
H          7.17117       -8.01135        0.93834
H          7.16288       -7.89111       -0.84732
H          5.93689       -8.92299       -0.01455
C          4.73169       -6.76115       -1.19471
H          6.21050       -5.86748        0.19098
C          3.73519       -5.65040       -1.40977
H          4.15950       -7.71173       -1.25113
H          5.45321       -6.75813       -2.04309
C          3.78185       -4.84240       -2.48763
C          2.73986       -3.81316       -2.70540
C          2.94615       -3.64990        2.07698
C          2.40042       -2.57004        1.18815
C          2.41487       -3.84478        3.48457
H          1.63518       -3.10696        3.75680
H          3.24717       -3.71115        4.21012
H          1.98104       -4.85781        3.60908
O          2.88128       -2.44963        0.06789
C          1.27584       -1.63689        1.61264
C          0.78094       -0.67456        0.54592
H          1.63271       -1.04194        2.48080
H          0.40318       -2.24707        1.93027
S         -0.51864        0.50629        0.96438
C         -0.83208        1.10369       -0.73479
H          0.09958        1.50224       -1.19010
H         -1.55185        1.94554       -0.68873
H         -1.27655        0.29646       -1.35426
O          1.24245       -0.68725       -0.58706
C          2.70398       -3.04717       -3.80682
C          1.62588       -2.04690       -3.98056
C          1.51599       -1.31048       -5.08906
H          4.35333       -4.21289        0.61522
H          0.89379       -1.90515       -3.19025
H          2.21444       -1.41759       -5.91294
H          0.70768       -0.59025       -5.17867
H          1.96506       -3.69186       -1.95481
H          3.45708       -3.16590       -4.58320
H          2.92523       -5.54243       -0.69592
H          4.57101       -4.96044       -3.22728
47
	Energy:     116.0258675
C          4.70391       -6.59093       -0.29638
C          5.61536       -5.78781        0.63073
C          5.57973       -4.25435        0.52875
H          6.68172       -6.07221        0.48460
H          5.38227       -6.10652        1.66934
C          4.31733       -3.44882        0.08464
H          6.41835       -3.92500       -0.12258
H          5.88952       -3.90778        1.54141
C          5.16018       -8.05947       -0.28596
H          6.20276       -8.13821       -0.66331
H          4.51701       -8.66637       -0.95929
H          5.11449       -8.48938        0.73743
C          3.23526       -6.52763        0.20595
H          4.80910       -6.25202       -1.34823
C          2.47784       -5.20283       -0.03479
H          3.18097       -6.81850        1.27781
H          2.65895       -7.30814       -0.34352
C          2.43621       -5.02181       -1.53112
C          3.24628       -4.17530       -2.17542
C          2.94440       -3.88641        0.69668
C          1.93244       -2.72948        0.49807
C          3.02681       -4.09805        2.22699
H          2.03148       -4.38831        2.62811
H          3.34954       -3.16480        2.73712
H          3.73788       -4.89013        2.51412
O          2.27228       -1.62288        0.89920
C          0.43647       -2.94471        0.35505
C         -0.22676       -1.77591       -0.31903
H          0.01085       -3.08736        1.37188
H          0.18798       -3.83020       -0.25720
S         -1.48289       -0.81991        0.56016
C         -1.29380        0.71059       -0.41338
H         -0.24488        1.07155       -0.37502
H         -1.93739        1.49858        0.02928
H         -1.63453        0.54145       -1.45622
O          0.06380       -1.50624       -1.47489
C          4.23863       -3.25995       -1.48376
C          3.91156       -1.82673       -1.86782
C          3.95383       -1.41204       -3.14025
H          4.60261       -2.44951        0.48798
H          3.66615       -1.09044       -1.11162
H          4.21850       -2.09186       -3.94450
H          3.73444       -0.37809       -3.38432
H          3.18055       -4.14250       -3.25880
H          5.24978       -3.43895       -1.90745
H          1.45457       -5.42989        0.32747
H          1.78484       -5.66506       -2.11640
