47
	Energy:      61.3719588
C          5.55269       -6.76276        0.13203
C          4.69741       -6.87432        1.44417
C          4.61557       -5.58014        2.29264
H          5.21618       -7.57099        2.14147
H          3.70928       -7.34161        1.24361
C          3.94786       -4.43077        1.59211
H          5.65461       -5.26791        2.52772
H          4.11629       -5.81602        3.25611
C          6.50830       -7.97121        0.04780
H          7.17117       -8.01135        0.93834
H          7.16288       -7.89111       -0.84732
H          5.93689       -8.92299       -0.01455
C          4.73169       -6.76115       -1.19471
H          6.21050       -5.86748        0.19098
C          3.73519       -5.65040       -1.40977
H          4.15950       -7.71173       -1.25113
H          5.45321       -6.75813       -2.04309
C          3.78185       -4.84240       -2.48763
C          2.73986       -3.81316       -2.70540
C          2.94615       -3.64990        2.07698
C          2.40042       -2.57004        1.18815
C          2.41487       -3.84478        3.48457
H          1.63518       -3.10696        3.75680
H          3.24717       -3.71115        4.21012
H          1.98104       -4.85781        3.60908
O          2.88128       -2.44963        0.06789
C          1.27584       -1.63689        1.61264
C          0.78094       -0.67456        0.54592
H          1.63271       -1.04194        2.48080
H          0.40318       -2.24707        1.93027
S         -0.51864        0.50629        0.96438
C         -0.83208        1.10369       -0.73479
H          0.09958        1.50224       -1.19010
H         -1.55185        1.94554       -0.68873
H         -1.27655        0.29646       -1.35426
O          1.24245       -0.68725       -0.58706
C          2.70398       -3.04717       -3.80682
C          1.62588       -2.04690       -3.98056
C          1.51599       -1.31048       -5.08906
H          4.35333       -4.21289        0.61522
H          0.89379       -1.90515       -3.19025
H          2.21444       -1.41759       -5.91294
H          0.70768       -0.59025       -5.17867
H          1.96506       -3.69186       -1.95481
H          3.45708       -3.16590       -4.58320
H          2.92523       -5.54243       -0.69592
H          4.57101       -4.96044       -3.22728
47
	Energy:     276.4885114
C          5.91305       -6.58751        0.29677
C          5.03393       -6.39444        1.53286
C          4.34182       -5.00578        1.49125
H          5.60552       -6.47836        2.48278
H          4.26998       -7.20410        1.52898
C          3.88414       -4.56507        0.05621
H          5.02918       -4.21921        1.87008
H          3.51617       -5.08275        2.22022
C          6.76328       -7.85934        0.38725
H          7.40713       -7.82940        1.29157
H          7.41483       -7.95054       -0.50747
H          6.11143       -8.75831        0.44822
C          5.03832       -6.61072       -0.99024
H          6.59556       -5.70808        0.26501
C          3.70552       -5.82698       -0.84607
H          4.74479       -7.64491       -1.27849
H          5.67960       -6.20864       -1.80592
C          3.14344       -5.45029       -2.19928
C          2.32671       -4.43043       -2.17589
C          2.59033       -3.60955        0.01245
C          2.85860       -2.28894        0.76459
C          1.37317       -4.34927        0.65832
H          0.43095       -3.78107        0.56634
H          1.51650       -4.52408        1.74100
H          1.16708       -5.32092        0.17017
O          4.00380       -2.00649        1.08995
C          1.76918       -1.30486        1.15944
C          1.87630        0.03411        0.47975
H          1.82935       -1.15722        2.25894
H          0.75981       -1.69015        0.94900
S          0.69095        1.31952        0.89793
C         -0.35057        1.05363       -0.57250
H          0.16129        1.43568       -1.47978
H         -1.29647        1.61888       -0.43830
H         -0.62732       -0.01557       -0.67686
O          2.74649        0.26324       -0.34660
C          2.31747       -3.29652       -1.49276
C          1.13713       -2.43933       -1.83091
C          1.01650       -1.83857       -3.02260
H          4.73483       -4.01693       -0.41443
H          0.34253       -2.28344       -1.11720
H          1.77771       -1.95508       -3.78854
H          0.14888       -1.22300       -3.23599
H          1.52037       -4.70715       -2.81155
H          3.16743       -2.75245       -1.90627
H          2.96842       -6.48238       -0.33499
H          3.64130       -5.72752       -3.12493
