9
-3.7183458155486733
C       -2.060140       0.481229       1.218345
C       -1.434604      -0.713736       1.866724
C       -0.644962       0.112846       0.900937
H       -1.184335      -0.655211       2.914995
H       -2.813170       0.318060       0.462454
H       -2.237438       1.358341       1.821923
H       -1.759906      -1.694495       1.554867
H       -0.430137      -0.302278      -0.071956
H        0.146082       0.736744       1.288620
9
-3.7183560251287417
C       -2.060142       0.481232       1.218345
C       -1.434606      -0.713726       1.866719
C       -0.644950       0.112846       0.900934
H       -1.184338      -0.655197       2.914998
H       -2.813176       0.318061       0.462459
H       -2.237454       1.358321       1.821943
H       -1.759908      -1.694489       1.554857
H       -0.430110      -0.302283      -0.071956
H        0.146074       0.736735       1.288609
