12
-38.322271353261385
C        0.954464       1.618174      -2.121941
C        0.780924       0.788151      -0.851356
C        1.196302      -0.645156      -1.045438
O        2.220151       2.219883      -2.178812
O        0.105631       2.793583      -1.896998
O        1.814480      -1.301868      -0.259560
H        0.466867       3.454436      -1.300924
H        2.300785       2.293659      -3.122807
H        0.460224       1.263297      -3.023624
H        0.855008      -1.073065      -2.009525
H       -0.278561       0.796465      -0.585156
H        1.357625       1.235908      -0.041669
12
-38.58067555652633
C        0.953549       1.619578      -2.121104
C        0.781128       0.788536      -0.850799
C        1.195543      -0.644913      -1.046065
O        2.221070       2.220554      -2.179608
O        0.103944       2.792240      -1.897687
O        1.814516      -1.302383      -0.261475
H        0.465845       3.452986      -1.302102
H        2.303846       2.292631      -3.122063
H        0.460529       1.263106      -3.022646
H        0.852786      -1.072152      -2.009989
H       -0.278017       0.797222      -0.583394
H        1.359100       1.235732      -0.041705
