12
-14.41928892431497
C        1.032246       1.586087      -2.162623
C        0.821800       0.782653      -0.883581
C        1.177971      -0.673574      -1.048649
O        2.153980       2.404269      -2.163761
O        0.084478       2.758375      -1.844713
O        1.753529      -1.342545      -0.241424
H        0.397227       3.490432      -1.313831
H        2.284140       2.192553      -3.132776
H        0.485671       1.289511      -3.050266
H        0.812984      -1.102675      -2.002885
H       -0.238677       0.836947      -0.629422
H        1.406303       1.222943      -0.075938
12
-15.104455173361202
C        1.031809       1.587324      -2.162883
C        0.821361       0.783429      -0.883630
C        1.177086      -0.672862      -1.048254
O        2.156185       2.405308      -2.168304
O        0.084843       2.753870      -1.843882
O        1.752504      -1.342291      -0.241168
H        0.398283       3.484296      -1.311229
H        2.286029       2.194319      -3.131823
H        0.483270       1.292627      -3.049953
H        0.811848      -1.102105      -2.002515
H       -0.238995       0.837875      -0.629698
H        1.406047       1.223953      -0.076141
