12
Coordinates from ORCA-job XSASRUDTFFBDDK-UHFFFAOYSA-N E -343.343736131681
  O      -0.897385      1.296925     -0.224375
  O      -1.563029      0.179220      0.350577
  C      -1.048803     -0.999749     -0.208976
  C       0.420573     -1.222324      0.169261
  C       1.277354     -0.113523     -0.384818
  O       2.043629      0.546949      0.258072
  H      -0.715083      1.869672      0.533900
  H      -1.687560     -1.778425      0.212951
  H      -1.161913     -0.979687     -1.300258
  H       0.754489     -2.164968     -0.267028
  H       0.532237     -1.262900      1.254139
  H       1.158352      0.034676     -1.474550
12
Coordinates from ORCA-job XSASRUDTFFBDDK-UHFFFAOYSA-N E -343.346704690965
  O      -1.054924      1.312649     -0.260907
  O      -1.630151      0.168005      0.396775
  C      -1.056753     -0.977353     -0.194219
  C       0.418749     -1.191329      0.166103
  C       1.318279     -0.106283     -0.373307
  O       2.154094      0.477173      0.272901
  H      -0.694692      1.811056      0.488036
  H      -1.665346     -1.781691      0.215548
  H      -1.190496     -0.951915     -1.281261
  H       0.737595     -2.134658     -0.284747
  H       0.541060     -1.257977      1.245572
  H       1.235446      0.038188     -1.471598
12
Coordinates from ORCA-job XSASRUDTFFBDDK-UHFFFAOYSA-N E -343.347051628730
  O      -1.059249      1.311195     -0.277096
  O      -1.651368      0.164428      0.405759
  C      -1.058205     -0.974972     -0.192572
  C       0.409876     -1.180696      0.169000
  C       1.335650     -0.124761     -0.377656
  O       2.113123      0.522620      0.291109
  H      -0.584994      1.726439      0.461258
  H      -1.658924     -1.789450      0.208559
  H      -1.196387     -0.950720     -1.276515
  H       0.721837     -2.131145     -0.275841
  H       0.535330     -1.248004      1.246753
  H       1.206172      0.080931     -1.463862
12
Coordinates from ORCA-job XSASRUDTFFBDDK-UHFFFAOYSA-N E -343.347729620801
  O      -1.042752      1.320037     -0.246724
  O      -1.658366      0.158420      0.394735
  C      -1.060490     -0.979494     -0.202020
  C       0.401506     -1.167332      0.173213
  C       1.310042     -0.108554     -0.388242
  O       2.100815      0.535255      0.265352
  H      -0.575876      1.711728      0.509034
  H      -1.659033     -1.802705      0.190513
  H      -1.189311     -0.949907     -1.286715
  H       0.725821     -2.121612     -0.255317
  H       0.523628     -1.216860      1.253434
  H       1.236880      0.026891     -1.488370
12
Coordinates from ORCA-job XSASRUDTFFBDDK-UHFFFAOYSA-N E -343.347755976500
  O      -1.047771      1.326018     -0.235260
  O      -1.659755      0.156830      0.394172
  C      -1.058588     -0.978636     -0.205351
  C       0.401932     -1.165770      0.175058
  C       1.311709     -0.113968     -0.394557
  O       2.098474      0.537492      0.254978
  H      -0.585224      1.714608      0.524569
  H      -1.658247     -1.804410      0.180390
  H      -1.185060     -0.943307     -1.290814
  H       0.726182     -2.124277     -0.244325
  H       0.523602     -1.207202      1.255888
  H       1.245606      0.008489     -1.495852
12
Coordinates from ORCA-job XSASRUDTFFBDDK-UHFFFAOYSA-N E -343.347764039413
  O      -1.051014      1.326590     -0.230137
  O      -1.661657      0.155180      0.394567
  C      -1.058368     -0.978391     -0.206882
  C       0.401003     -1.163491      0.176982
  C       1.310016     -0.114163     -0.396568
  O       2.094146      0.542250      0.250625
  H      -0.574188      1.703272      0.526764
  H      -1.658814     -1.806079      0.173348
  H      -1.183298     -0.938165     -1.292575
  H       0.726440     -2.124200     -0.236872
  H       0.522447     -1.200514      1.258025
  H       1.246150      0.003577     -1.498383
12
Coordinates from ORCA-job XSASRUDTFFBDDK-UHFFFAOYSA-N E -343.347765824586
  O      -1.053233      1.326480     -0.228626
  O      -1.662051      0.154629      0.395500
  C      -1.057937     -0.978161     -0.207143
  C       0.401187     -1.163459      0.177533
  C       1.310746     -0.115260     -0.397329
  O       2.094975      0.542321      0.248829
  H      -0.574411      1.702907      0.527247
  H      -1.659114     -1.806440      0.170350
  H      -1.182015     -0.935453     -1.292722
  H       0.726439     -2.125240     -0.234014
  H       0.522372     -1.198884      1.258604
  H       1.245904      0.002425     -1.499334
12
Coordinates from ORCA-job XSASRUDTFFBDDK-UHFFFAOYSA-N E -343.347766271801
  O      -1.053705      1.325969     -0.228168
  O      -1.662243      0.154317      0.396053
  C      -1.057781     -0.978199     -0.207198
  C       0.401197     -1.163443      0.177745
  C       1.310831     -0.115463     -0.397580
  O       2.095978      0.541876      0.247952
  H      -0.574516      1.702949      0.527242
  H      -1.659343     -1.806798      0.168873
  H      -1.181182     -0.934227     -1.292727
  H       0.726542     -2.125680     -0.232583
  H       0.522039     -1.198007      1.258886
  H       1.245044      0.002572     -1.499600
