12
-16.320771614433397
C        1.091987       1.579977      -2.317961
C       -0.139376       2.471350      -2.339627
C        2.155666      -0.714503       0.124193
O        1.043009       0.881091      -1.087359
O        2.176655       0.026811      -0.982855
O        3.022914      -1.486667       0.379111
H       -0.113189       3.164991      -1.503912
H        2.011513       2.174709      -2.370717
H        1.078384       0.866739      -3.150647
H        1.262260      -0.523168       0.747229
H       -0.161869       3.031264      -3.269801
H       -1.038945       1.867105      -2.263245
12
-16.320845139718585
C        1.091998       1.579991      -2.317987
C       -0.139373       2.471332      -2.339622
C        2.155650      -0.714489       0.124207
O        1.043045       0.881057      -1.087351
O        2.176645       0.026821      -0.982850
O        3.022897      -1.486619       0.379107
H       -0.113205       3.164940      -1.503926
H        2.011505       2.174729      -2.370730
H        1.078404       0.866770      -3.150689
H        1.262227      -0.523148       0.747228
H       -0.161882       3.031231      -3.269728
H       -1.038900       1.867085      -2.263250
