12
-37.99981009185467
C        0.837458       1.151724      -2.466920
C        0.975593       1.063243      -0.927586
C        2.052466       0.049903      -0.594089
O       -0.037614       2.189633      -2.819516
O        1.267328       2.319920      -0.390182
O        3.147085       0.296409      -0.190091
H        1.021300       2.992209      -1.041933
H        1.804519       1.422746      -2.897784
H        0.515988       0.186981      -2.876546
H        1.716900      -0.991856      -0.784326
H       -0.933535       1.968827      -2.538077
H        0.021521       0.689882      -0.508749
12
-37.99985742489298
C        0.837473       1.151716      -2.466896
C        0.975598       1.063251      -0.927586
C        2.052466       0.049899      -0.594097
O       -0.037623       2.189624      -2.819518
O        1.267332       2.319962      -0.390183
O        3.147077       0.296336      -0.190124
H        1.021318       2.992228      -1.041968
H        1.804531       1.422745      -2.897771
H        0.516011       0.186960      -2.876520
H        1.716860      -0.991821      -0.784331
H       -0.933551       1.968825      -2.538072
H        0.021516       0.689896      -0.508735
