12
-25.857336199609563
C        0.862259       1.226133      -2.513931
C        0.818004       0.937159      -1.015592
C        2.042685       0.064449      -0.658008
O        0.153189       2.425924      -2.697650
O        1.225520       2.152014      -0.368953
O        2.995780       0.412854      -0.052202
H        0.917181       2.936802      -0.836114
H        1.908508       1.363961      -2.801806
H        0.428693       0.434487      -3.141289
H        1.948136      -0.972910      -1.055378
H       -0.734999       2.159910      -2.414823
H       -0.008139       0.326108      -0.662075
12
-26.211298762907973
C        0.862529       1.225275      -2.514343
C        0.819201       0.937312      -1.014135
C        2.043105       0.063136      -0.657241
O        0.153722       2.426984      -2.699264
O        1.223337       2.148712      -0.369671
O        2.996659       0.412487      -0.052549
H        0.912532       2.932883      -0.836730
H        1.908449       1.362055      -2.803498
H        0.427707       0.433276      -3.140225
H        1.948287      -0.974062      -1.054768
H       -0.731074       2.164723      -2.416981
H       -0.007436       0.327857      -0.659796
