  48
        -65.77342783
 Si         0.2682551143        2.9735820652        0.3192323455
 C          1.9207956808        3.8149695899       -0.0948229666
 H          2.0807959390        4.7118592471        0.4942749894
 H          1.9751269289        4.0936881907       -1.1436357941
 H          2.7413143837        3.1325859428        0.1087192790
 C         -1.2469574970        4.0504364626       -0.0873058588
 H         -1.2747122478        4.9281672347        0.5489004725
 H         -2.1733747915        3.5051044202        0.0631803356
 H         -1.2321173521        4.3900950484       -1.1178201114
 C          0.2232480254        2.4730629859        2.1588955363
 O          0.0081734909        1.6799604913       -0.6669124683
 H          0.1800803766        3.3514932125        2.7952070557
 H          1.1098044801        1.9134357106        2.4403473102
 H         -0.6430660757        1.8607822015        2.3969563539
 C          0.7978774373        0.7551921645       -1.2538692103
 C          1.2596586077        0.9054914806       -2.4872821959
 H          1.0412717709        1.7946857364       -3.0492540724
 H          1.8716225552        0.1570333177       -2.9534663633
 C          1.0924525036       -0.4381131367       -0.4139698031
 C          1.9469267969       -0.1929769407        0.7927883769
 O          1.5996563395       -1.0322511103        1.7790731835
 C          1.1341347206       -1.8355331877       -1.0047060269
 C         -1.3846964478       -1.4375711916       -0.2163860717
 C         -2.1199571571       -0.4516674448        0.2831659909
 C         -1.9849414543       -2.5890071630       -0.9784424752
 O          2.7935680991        0.6473389841        0.9187929440
 C         -3.6037218226       -0.3539961576        0.1298496009
 C         -3.3886260225       -2.2523320547       -1.4717509762
 H         -2.0220310896       -3.4653649651       -0.3217617801
 H         -1.3412242116       -2.8470826809       -1.8221848344
 C         -4.2134067044       -1.6762661882       -0.3266944600
 H         -3.8214214557        0.4303721426       -0.6027109414
 H         -4.0477072694       -0.0373909340        1.0771244035
 H         -3.8657598012       -3.1480252355       -1.8739857125
 H         -3.3222111737       -1.5137335918       -2.2728714057
 H         -5.2472246185       -1.5225407312       -0.6408960571
 H         -4.2158721590       -2.3839941986        0.5051582388
 C          2.1046947133       -2.8509623585       -0.4251470166
 C          0.0804976186       -1.4858592337        0.0020007924
 H          0.8904245299       -1.9040489203       -2.0550009574
 C          0.6706419831       -2.0123687862        1.3198826214
 C          1.4586055980       -3.2595921495        0.9090073241
 H          0.7667598675       -4.0892254044        0.7631048485
 H          2.1894705200       -3.5336050499        1.6676860459
 H          3.0889279667       -2.4083524645       -0.2604813285
 H          2.2245442037       -3.7037646905       -1.0919816751
 H         -0.0566108001       -2.1811984690        2.1151300297
 H         -1.6430586104        0.3618633388        0.8096985827
48

Si                    0.57145000           2.99852000           0.25446000         
C                     1.77667000           4.46163000           0.26190000         
H                     1.43390000           5.23441000           0.95589000         
H                     1.85162000           4.89722000          -0.73840000         
H                     2.77111000           4.12907000           0.57341000         
C                    -1.11374000           3.68376000          -0.22726000         
H                    -1.35974000           4.55523000           0.38688000         
H                    -1.89868000           2.93739000          -0.08144000         
H                    -1.11651000           3.99280000          -1.27658000         
C                     0.47569000           2.36900000           2.02207000         
O                     1.12751000           1.85217000          -0.83454000         
H                     0.13007000           3.16520000           2.68852000         
H                     1.45920000           2.04201000           2.37073000         
H                    -0.21850000           1.53112000           2.11375000         
C                     0.65999000           0.55054000          -0.95575000         
C                    -0.77951000           0.34386000          -1.39816000         
H                    -1.20908000           1.30277000          -1.70360000         
H                    -0.80867000          -0.28352000          -2.29752000         
C                     1.44819000          -0.51429000          -0.66877000         
C                     2.22734000          -0.30401000           0.57029000         
O                     1.57812000          -0.87972000           1.63178000         
C                     1.03389000          -1.95336000          -0.84941000         
C                    -1.30710000          -1.79590000          -0.04298000         
C                    -1.62241000          -0.29851000          -0.23597000         
C                    -2.10491000          -2.74143000          -0.93629000         
O                     3.25089000           0.35084000           0.66518000         
C                    -3.12867000           0.01959000          -0.38713000         
C                    -3.23920000          -2.09702000          -1.72499000         
H                    -2.54166000          -3.50522000          -0.27870000         
H                    -1.45200000          -3.27451000          -1.63830000         
C                    -4.00879000          -1.13924000          -0.83833000         
H                    -3.26754000           0.85608000          -1.08293000         
H                    -3.51549000           0.38403000           0.57373000         
H                    -3.90974000          -2.87870000          -2.10045000         
H                    -2.84722000          -1.56942000          -2.60241000         
H                    -4.88884000          -0.75263000          -1.36468000         
H                    -4.38467000          -1.67664000           0.04201000         
C                     2.08120000          -2.99643000          -0.40933000         
C                    -0.02635000          -2.16318000           0.19505000         
H                     0.71284000          -2.14956000          -1.87742000         
C                     0.81893000          -2.11088000           1.45210000         
C                     1.84000000          -3.19851000           1.10118000         
H                     1.42756000          -4.19896000           1.28012000         
H                     2.77455000          -3.10192000           1.66378000         
H                     3.10734000          -2.67392000          -0.61911000         
H                     1.92483000          -3.94747000          -0.93324000         
H                     0.26388000          -2.32657000           2.36835000         
H                    -1.32705000           0.19867000           0.69725000         
