  48
        -65.77332635
 Si         0.9933464414        3.4184427742        0.0867257586
 C          2.2753225499        3.2867324204        1.4847352620
 H          1.8139712091        3.3895789411        2.4629169137
 H          3.0455066447        4.0471300914        1.4074236464
 H          2.7605775740        2.3141322276        1.4597895338
 C          1.7638065678        3.8672405073       -1.5915078795
 H          2.1289469297        4.8883905452       -1.5848179408
 H          1.0414951361        3.7809926564       -2.3972516559
 H          2.6009054347        3.2184438014       -1.8292538577
 C         -0.3938150466        4.6526157094        0.5314394013
 O          0.3460748569        1.9312430569       -0.2260964442
 H         -1.1909402569        4.6303722991       -0.2065279988
 H         -0.0139614620        5.6683469305        0.5699626265
 H         -0.8395333229        4.4363298896        1.4984444265
 C          0.1550859222        0.8683603827        0.5852735964
 C         -0.4385592230        0.9224395108        1.7688857591
 H         -0.7949621327        1.8528740115        2.1697207243
 H         -0.5779003116        0.0344506280        2.3558813643
 C          0.6969519230       -0.4029851267        0.0306524603
 C          1.8949838334       -0.9791999979        0.7221784357
 O          1.8784998372       -2.3169076124        0.6190590622
 C          0.5301703780       -0.7226614134       -1.4393357299
 C         -1.5938125911       -1.7072990905       -0.1599680941
 C         -2.0944687773       -2.6225045572        0.6652743285
 C         -2.4701208736       -0.7118004089       -0.8723348537
 O          2.7379472463       -0.3786773358        1.3270405777
 C         -3.5534803560       -2.7949144841        0.9481993771
 C         -3.8605638209       -0.6389179829       -0.2497479712
 H         -2.5489098571       -1.0013700311       -1.9255277870
 H         -2.0031597529        0.2743812893       -0.8337143358
 C         -4.4169721803       -2.0440516269       -0.0594605183
 H         -3.7583578097       -2.4269804546        1.9594897396
 H         -3.7997487396       -3.8601226514        0.9418879458
 H         -4.5199216696       -0.0480763326       -0.8879081947
 H         -3.7943774043       -0.1432651299        0.7206237393
 H         -5.4501565545       -2.0044118419        0.2895885281
 H         -4.4033734893       -2.5696135512       -1.0165334649
 C          1.6219395526       -1.4981793747       -2.1543142546
 C         -0.1438556385       -1.5917500482       -0.4128977752
 H         -0.0225260572        0.0072173176       -2.0117795104
 C          0.8406981413       -2.7580763564       -0.2567763878
 C          1.4386870615       -2.9389713926       -1.6546935938
 H          0.7255410870       -3.4764961090       -2.2799211900
 H          2.3720745933       -3.4975253574       -1.6156497337
 H          2.6116855195       -1.1190735214       -1.8923429661
 H          1.5077771643       -1.4277880856       -3.2351767357
 H          0.4261193618       -3.6759096346        0.1588017773
 H         -1.4399448174       -3.2975935654        1.1988901966
48

Si                    0.46200000           3.01782000           0.16476000         
C                     1.50421000           3.19928000           1.71944000         
H                     0.88394000           3.09195000           2.61409000         
H                     1.98049000           4.18385000           1.74797000         
H                     2.29137000           2.44012000           1.75208000         
C                     1.58690000           3.17793000          -1.33594000         
H                     2.09200000           4.14826000          -1.33597000         
H                     1.00641000           3.09141000          -2.25919000         
H                     2.34908000           2.39342000          -1.33408000         
C                    -0.77326000           4.43996000           0.12482000         
O                    -0.36687000           1.55293000           0.11653000         
H                    -1.38713000           4.38903000          -0.77907000         
H                    -0.25271000           5.40201000           0.13622000         
H                    -1.43516000           4.39482000           0.99464000         
C                     0.23578000           0.42749000           0.67723000         
C                    -0.74897000          -0.32438000           1.60188000         
H                    -1.52703000           0.38155000           1.91983000         
H                    -0.23258000          -0.60408000           2.52935000         
C                     1.10074000          -0.31942000          -0.05721000         
C                     1.76615000          -1.40760000           0.70757000         
O                     1.45979000          -2.67481000           0.33258000         
C                     0.67225000          -0.70191000          -1.46670000         
C                    -1.43522000          -1.62213000          -0.56036000         
C                    -1.43434000          -1.61097000           0.97685000         
C                    -2.52849000          -0.80671000          -1.22280000         
O                     2.50481000          -1.16740000           1.65375000         
C                    -2.85355000          -1.82815000           1.52392000         
C                    -3.44706000          -0.06869000          -0.25260000         
H                    -3.14333000          -1.50375000          -1.80715000         
H                    -2.11270000          -0.08470000          -1.93460000         
C                    -3.94198000          -0.96739000           0.87454000         
H                    -2.86359000          -1.67417000           2.61025000         
H                    -3.12547000          -2.88253000           1.37654000         
H                    -4.30789000           0.33323000          -0.80056000         
H                    -2.93207000           0.80110000           0.16725000         
H                    -4.43232000          -0.35271000           1.63868000         
H                    -4.72181000          -1.63258000           0.48123000         
C                     1.80327000          -1.30798000          -2.30694000         
C                    -0.27431000          -1.88038000          -1.21902000         
H                     0.20611000           0.12756000          -2.00734000         
C                     0.74677000          -2.94692000          -0.89070000         
C                     1.73712000          -2.81477000          -2.04364000         
H                     1.36509000          -3.33051000          -2.93704000         
H                     2.72652000          -3.21507000          -1.79929000         
H                     2.78339000          -0.89257000          -2.04644000         
H                     1.64140000          -1.11476000          -3.37408000         
H                     0.31218000          -3.94874000          -0.83329000         
H                    -0.85545000          -2.47385000           1.33150000         
