  48
        -65.77506719
 Si         3.0693128250        1.0810817833       -0.1752297779
 C          3.3660566547        1.1838177579       -2.0500862119
 H          4.2264407080        1.8084371168       -2.2629950352
 H          2.5156791100        1.6111123337       -2.5729010613
 H          3.5573010220        0.2046685757       -2.4775748327
 C          2.6719795792        2.8070912408        0.5362153047
 H          3.5619426229        3.4252702748        0.5955730622
 H          2.2505113346        2.7429212353        1.5354802618
 H          1.9528807245        3.3331655289       -0.0857778948
 C          4.5611069955        0.3094237149        0.7225464431
 O          1.7467223135        0.1027470756       -0.1349434220
 H          4.6338932866       -0.7531365178        0.5079713730
 H          4.4897701460        0.4165802286        1.8010370487
 H          5.4924745337        0.7722258912        0.4121477997
 C          1.0063243635       -0.4582881942        0.8487406693
 C          1.2129466065       -0.2690616034        2.1448042540
 H          2.0270890574        0.3370754701        2.4944594313
 H          0.5928265253       -0.7443711229        2.8792704795
 C         -0.1064059351       -1.3002512793        0.3364164865
 C         -0.5687011331       -2.4573930026        1.1718956505
 O         -1.8876720608       -2.6448154554        1.0016664100
 C         -0.3525103366       -1.3956692478       -1.1589321460
 C         -1.7287740706        0.7182173421       -0.2616256114
 C         -2.6093298678        1.1795910202        0.6222416797
 C         -1.0493180314        1.6142277450       -1.2611638153
 O          0.0866722302       -3.1244658969        1.9206696282
 C         -3.0552962831        2.6052965796        0.6989519899
 C         -1.2174210477        3.0872942700       -0.9020812327
 H         -1.4720394269        1.4190935158       -2.2526515606
 H          0.0129650696        1.3699823128       -1.3021393933
 C         -2.6728175235        3.3784618934       -0.5586311357
 H         -2.5935662912        3.0708961530        1.5763821269
 H         -4.1370919028        2.6390797762        0.8530950627
 H         -0.8872789016        3.7104722522       -1.7354594276
 H         -0.5946684470        3.3199061689       -0.0360883218
 H         -2.8240486334        4.4478330449       -0.4015995041
 H         -3.3095125451        3.0649351915       -1.3885736290
 C         -0.9189386178       -2.6844235845       -1.7282474803
 C         -1.3709022836       -0.7150509760       -0.2963699650
 H          0.3325884668       -0.8326893795       -1.7745011743
 C         -2.4024433841       -1.8212561883       -0.0426247677
 C         -2.4036924796       -2.6395203371       -1.3369150790
 H         -2.9867464871       -2.1127968611       -2.0925875044
 H         -2.8320014343       -3.6275817581       -1.1791251259
 H         -0.4292648337       -3.5581067200       -1.2937898133
 H         -0.7869157077       -2.7247606353       -2.8086700327
 H         -3.3918587174       -1.4770671147        0.2590015857
 H         -3.0447035369        0.5138494763        1.3550856572
48

Si                    3.00165000           1.13898000          -0.23896000         
C                     3.85549000           1.62760000          -1.84644000         
H                     4.90396000           1.88024000          -1.66346000         
H                     3.36270000           2.49608000          -2.29297000         
H                     3.81870000           0.80270000          -2.56400000         
C                     3.13823000           2.58491000           0.95665000         
H                     4.18602000           2.85777000           1.11264000         
H                     2.70238000           2.32750000           1.92632000         
H                     2.60974000           3.45802000           0.56257000         
C                     3.92650000          -0.33050000           0.48368000         
O                     1.38582000           0.77902000          -0.55055000         
H                     3.85689000          -1.19504000          -0.18295000         
H                     3.51248000          -0.61097000           1.45677000         
H                     4.98423000          -0.08706000           0.62130000         
C                     0.68968000           0.04380000           0.40929000         
C                    -0.23799000           0.93144000           1.26998000         
H                     0.13421000           1.96204000           1.22604000         
H                    -0.13442000           0.64467000           2.32462000         
C                     0.23432000          -1.18806000           0.07346000         
C                    -0.36837000          -1.94482000           1.20206000         
O                    -1.68984000          -2.22870000           1.09289000         
C                    -0.49538000          -1.32162000          -1.25370000         
C                    -2.05018000           0.47145000          -0.56885000         
C                    -1.77257000           0.91823000           0.87557000         
C                    -1.99886000           1.56004000          -1.62138000         
O                     0.28149000          -2.24071000           2.19692000         
C                    -2.43131000           2.28309000           1.12460000         
C                    -1.37122000           2.86630000          -1.14501000         
H                    -3.03244000           1.76911000          -1.92670000         
H                    -1.47058000           1.21504000          -2.51805000         
C                    -1.97567000           3.38279000           0.16024000         
H                    -2.26030000           2.60706000           2.15846000         
H                    -3.51941000           2.16774000           1.02347000         
H                    -1.47857000           3.63280000          -1.92192000         
H                    -0.29282000           2.72935000          -1.01554000         
H                    -1.24075000           4.02871000           0.65614000         
H                    -2.83524000           4.02668000          -0.06411000         
C                    -0.70116000          -2.77645000          -1.69133000         
C                    -1.91002000          -0.83346000          -0.92103000         
H                    -0.02236000          -0.74908000          -2.05841000         
C                    -2.39852000          -2.03887000          -0.14688000         
C                    -2.03772000          -3.19554000          -1.07462000         
H                    -2.78951000          -3.30955000          -1.86479000         
H                    -1.94490000          -4.14927000          -0.54485000         
H                     0.11806000          -3.42875000          -1.36837000         
H                    -0.76286000          -2.84824000          -2.78384000         
H                    -3.47148000          -2.00081000           0.06134000         
H                    -2.27441000           0.21801000           1.55613000         
