  48
        -65.76954035
 Si         0.1915437861        2.8996221468        0.4370967916
 C          0.0409017922        2.2764536530        2.2320574853
 H          0.8651494663        1.6213054288        2.4969891457
 H         -0.8850833503        1.7324186541        2.3969682564
 H          0.0542204360        3.1084583668        2.9290213806
 C          1.8622195296        3.7679650221        0.1810769943
 H          1.9888582347        4.6156453198        0.8462776682
 H          1.9745440866        4.1276589138       -0.8380962212
 H          2.6717198862        3.0694790505        0.3752487783
 C         -1.2999706938        4.0010454147        0.0102081547
 O          0.0088241995        1.6653651458       -0.6411447929
 H         -2.2339695190        3.4524196465        0.0794858638
 H         -1.2293697896        4.3991920204       -0.9968222097
 H         -1.3620416081        4.8407305864        0.6935007490
 C          0.8829924858        0.8262362992       -1.2410305186
 C          1.4322133789        1.0960223052       -2.4162122846
 H          1.2237015063        2.0211582854       -2.9209518479
 H          2.1073956034        0.4081041252       -2.8884632260
 C          1.1574281824       -0.4251619248       -0.4841182729
 C          1.9693040948       -0.2809272168        0.7662320920
 O          1.5735819703       -1.1826401267        1.6775883537
 C          1.1730468600       -1.7741584364       -1.1750089934
 C         -1.3366485457       -1.2897211750       -0.4233274949
 C         -1.9594355186       -1.6854454995       -1.5295208081
 C         -2.1583560117       -0.5727879651        0.6076720790
 O          2.8173063311        0.5386086793        0.9851683117
 C         -3.4209003365       -1.4038155492       -1.6504188611
 C         -3.4506728048       -1.3479764971        0.9039452077
 H         -2.4122063232        0.4149775332        0.2126922377
 H         -1.5937660512       -0.4235038992        1.5280506541
 C         -4.1435311203       -1.8557912895       -0.3722777299
 H         -3.8510506699       -1.9072244617       -2.5162759820
 H         -3.5684674090       -0.3267772336       -1.7773706887
 H         -4.1229481226       -0.7011863149        1.4692663410
 H         -3.2047661799       -2.1979564809        1.5431997592
 H         -4.1654413315       -2.9468577782       -0.3645305925
 H         -5.1770690635       -1.5091014408       -0.4072191026
 C          2.0976709131       -2.8563920631       -0.6445703446
 C          0.1010197279       -1.4721577090       -0.1711751632
 H          0.9574086505       -1.7570426533       -2.2328496758
 C          0.6362592520       -2.1041730892        1.1194339209
 C          1.4029748784       -3.3394380190        0.6388169961
 H          0.6911785036       -4.1337480524        0.4136820794
 H          2.1034823111       -3.6899117771        1.3947650616
 H          3.0885545036       -2.4553299445       -0.4226688843
 H          2.2129424606       -3.6627503217       -1.3673571090
 H         -0.1123992626       -2.3202566804        1.8822627584
 H         -1.4540600823       -2.2106349364       -2.3244377398
48

Si                    0.49600237           2.90415555           0.07778570         
C                     0.09519957           2.10110493           1.72576864         
H                     1.00770956           1.77937144           2.23512157         
H                    -0.55071158           1.23152488           1.59091819         
H                    -0.42230515           2.80947290           2.37972867         
C                     1.67599204           4.34242626           0.42516007         
H                     1.22441563           5.04538698           1.13108552         
H                     1.90566546           4.87730456          -0.50087539         
H                     2.61121568           3.97044981           0.85343537         
C                    -1.08391610           3.65397209          -0.61990399         
O                     1.21941709           1.85880256          -1.01694366         
H                    -1.86991614           2.90121982          -0.71006489         
H                    -0.89997150           4.08363516          -1.60883282         
H                    -1.45056502           4.44829037           0.03720384         
C                     0.84811112           0.53445708          -1.17856984         
C                    -0.43675431           0.26181393          -1.97178971         
H                    -0.94160828           1.21221301          -2.17890322         
H                    -0.13711846          -0.09917892          -2.96609942         
C                     1.59254606          -0.49029931          -0.69359763         
C                     2.33568577          -0.29418907           0.57899833         
O                     1.80188040          -1.02673166           1.62018182         
C                     1.13410786          -1.89760487          -0.88252787         
C                    -1.16228258          -1.44103516          -0.03056347         
C                    -1.49868924          -0.77206669          -1.37966723         
C                    -2.21909662          -1.37749566           1.03840421         
O                     3.28620945           0.45971461           0.71515492         
C                    -2.89039980          -0.11148934          -1.32369161         
C                    -3.57025335          -1.80974175           0.47478629         
H                    -2.29141597          -0.35384641           1.42308953         
H                    -1.96827125          -2.01991909           1.88941667         
C                    -3.96507680          -1.06892946          -0.80705558         
H                    -3.17797481           0.24219917          -2.32141887         
H                    -2.85939919           0.77234845          -0.67497200         
H                    -4.34606621          -1.66302690           1.23582956         
H                    -3.54992387          -2.88793369           0.26852467         
H                    -4.19535854          -1.80769423          -1.58515154         
H                    -4.89293436          -0.50947110          -0.63808759         
C                     2.10575080          -3.01649934          -0.46562777         
C                     0.07997626          -1.91900815           0.17111359         
H                     0.78382425          -2.09596133          -1.90019506         
C                     0.88270255          -2.16532404           1.41145367         
C                     1.75088082          -3.34143265           0.99087057         
H                     1.18850683          -4.28144086           1.04022208         
H                     2.65539765          -3.44131630           1.59936152         
H                     3.15401737          -2.71543914          -0.57337556         
H                     1.96087149          -3.91007209          -1.08448309         
H                     0.31294846          -2.33426744           2.32662512         
H                    -1.58473616          -1.58845085          -2.11298372         
