  48
        -65.77375504
 Si        -0.2246385553        2.8410701453        0.1271237177
 C         -1.8724366116        3.7179692130       -0.2423471473
 H         -2.7195435419        3.0453803534       -0.1503119810
 H         -1.8871896036        4.1271927755       -1.2469910476
 H         -2.0292224113        4.5380683856        0.4496379905
 C         -0.3465596238        1.9683291958        1.8205310476
 H          0.6279375767        1.6627068470        2.1886201192
 H         -0.9764735061        1.0830843598        1.7710091381
 H         -0.7750193311        2.6318369949        2.5655734945
 C          1.2482545450        4.0395741618        0.0785629950
 O         -0.1791166265        1.7957669316       -1.1417815545
 H          1.2741021212        4.5941483896       -0.8553631915
 H          2.1852885869        3.4973865329        0.1643257846
 H          1.2039700434        4.7599094443        0.8890930920
 C          0.5710788157        0.7860568618       -1.6266643204
 C          0.8290826100        0.7084146504       -2.9266563598
 H          0.4692806787        1.4643517389       -3.5998879872
 H          1.4134365175       -0.0908750576       -3.3396448994
 C          1.0808870838       -0.2156528220       -0.6490006384
 C          2.0914914993        0.3080598774        0.3289955684
 O          2.0255651731       -0.3829035989        1.4757595714
 C          1.2247414834       -1.6789332301       -1.0247763310
 C         -1.1524098830       -1.5436459580        0.1355484397
 C         -2.0682308909       -0.6839975134       -0.2936105350
 C         -1.5209318466       -2.9021773998        0.6808375080
 O          2.8392706230        1.2312849332        0.1695385662
 C         -3.5411424381       -0.9465513906       -0.2710131727
 C         -2.9411502266       -3.2955463979        0.2858347592
 H         -1.4356007917       -2.8908457062        1.7723522534
 H         -0.8119725372       -3.6445814349        0.3064914589
 C         -3.8955464070       -2.1496271633        0.5969242803
 H         -3.8775023770       -1.1169730044       -1.2994201237
 H         -4.0583881694       -0.0532055820        0.0877141042
 H         -3.2370570781       -4.1988810589        0.8224559074
 H         -2.9746334929       -3.5105920553       -0.7840572492
 H         -4.9285770358       -2.4514710542        0.4160754066
 H         -3.8023610321       -1.8808817642        1.6511897730
 C          2.4082398989       -2.4703944775       -0.4954294181
 C          0.3049982705       -1.2809984403        0.0987661232
 H          0.8073353469       -1.9598966862       -1.9807757995
 C          1.1759179135       -1.5195361622        1.3432465209
 C          2.0617373465       -2.7165197908        0.9824280340
 H          1.4958693932       -3.6402101165        1.1010101783
 H          2.9420716098       -2.7567760929        1.6216038980
 H          3.3356446081       -1.9016687242       -0.5866770664
 H          2.5296354054       -3.4048621536       -1.0416869184
 H          0.6295167999       -1.6322432485        2.2801362931
 H         -1.7792617807        0.2703156606       -0.7016973369
48

Si                   -0.05630000           2.95152000           0.23562000         
C                    -1.80688000           3.41751000          -0.28077000         
H                    -2.44169000           2.53238000          -0.36939000         
H                    -1.79538000           3.93248000          -1.24585000         
H                    -2.25716000           4.08539000           0.45965000         
C                    -0.14090000           2.03063000           1.87061000         
H                     0.86256000           1.80656000           2.24284000         
H                    -0.68912000           1.09154000           1.76954000         
H                    -0.65150000           2.63945000           2.62295000         
C                     0.87831000           4.56564000           0.54689000         
O                     0.72562000           2.08949000          -0.97126000         
H                     0.92515000           5.16116000          -0.36936000         
H                     1.89966000           4.35465000           0.87689000         
H                     0.37738000           5.15498000           1.32030000         
C                     0.56757000           0.73208000          -1.17343000         
C                    -0.76050000           0.23343000          -1.75972000         
H                    -1.36176000           1.08713000          -2.09631000         
H                    -0.57678000          -0.34367000          -2.67423000         
C                     1.51709000          -0.17748000          -0.84376000         
C                     2.39305000           0.05953000           0.33629000         
O                     2.18521000          -0.85312000           1.35433000         
C                     1.24543000          -1.62237000          -1.07500000         
C                    -0.90106000          -1.58152000           0.23285000         
C                    -1.60905000          -0.60889000          -0.73446000         
C                    -1.79075000          -2.01386000           1.36632000         
O                     3.18753000           0.98250000           0.42884000         
C                    -2.77667000          -1.35775000          -1.38474000         
C                    -3.00230000          -2.74021000           0.76708000         
H                    -2.11660000          -1.14132000           1.94409000         
H                    -1.27389000          -2.68795000           2.05732000         
C                    -3.72433000          -1.91685000          -0.31005000         
H                    -2.39944000          -2.17882000          -2.00725000         
H                    -3.33984000          -0.68581000          -2.04286000         
H                    -3.70859000          -2.99395000           1.56595000         
H                    -2.67274000          -3.68928000           0.32419000         
H                    -4.49586000          -2.53231000          -0.78651000         
H                    -4.24284000          -1.08003000           0.17496000         
C                     2.44237000          -2.58339000          -0.94075000         
C                     0.40077000          -1.90344000           0.11760000         
H                     0.75411000          -1.83257000          -2.02883000         
C                     1.43639000          -2.12218000           1.17751000         
C                     2.39240000          -3.09128000           0.50330000         
H                     1.99869000          -4.11416000           0.53035000         
H                     3.39040000          -3.08634000           0.95301000         
H                     3.39536000          -2.09229000          -1.16875000         
H                     2.34371000          -3.43023000          -1.63043000         
H                     1.06951000          -2.45351000           2.15034000         
H                    -2.05598000           0.15712000          -0.08259000         
