  48
        -65.77504320
 Si         3.0378772373        1.2006436771       -0.1911284843
 C          3.4145767774        1.2021686616       -2.0540371558
 H          2.5643780438        1.5385393705       -2.6396179502
 H          3.6852033986        0.2117722772       -2.4059295980
 H          4.2436867112        1.8660583651       -2.2721307962
 C          2.5197846180        2.9423195259        0.3938449157
 H          2.0633968611        2.9148363166        1.3794738633
 H          1.7983069128        3.3882339323       -0.2853517903
 H          3.3718968337        3.6122403986        0.4465056387
 C          4.5238059595        0.5691371365        0.8192412963
 O          1.7622917290        0.1617501571       -0.1450750119
 H          4.4285637767        0.8006786393        1.8761946956
 H          5.4529304781        1.0117146237        0.4744096230
 H          4.6202999840       -0.5094522128        0.7318347032
 C          1.0159026552       -0.3851843334        0.8414321528
 C          1.1775730889       -0.1352416769        2.1335861814
 H          1.9578656953        0.5152581966        2.4805591693
 H          0.5534266538       -0.6037531194        2.8692195379
 C         -0.0509182404       -1.2901338300        0.3385931007
 C         -0.4470585902       -2.4618629055        1.1875345296
 O         -1.7547899661       -2.7215289154        1.0249024399
 C         -0.2985000740       -1.4100661823       -1.1539945770
 C         -1.7766219241        0.6358513907       -0.2625073598
 C         -2.6880053144        1.0558517868        0.6106753899
 C         -1.1276171927        1.5633488124       -1.2536961151
 O          0.2465456066       -3.0838643364        1.9405285892
 C         -3.1997268297        2.4595433359        0.6828198299
 C         -1.3644899257        3.0266292689       -0.8933265351
 H         -1.5319049499        1.3523571855       -2.2496105535
 H         -0.0550880383        1.3667633962       -1.2854478116
 C         -2.8353947757        3.2527928378       -0.5675741727
 H         -2.7721171755        2.9433884511        1.5676578848
 H         -4.2839834607        2.4436718414        0.8217524810
 H         -1.0520437756        3.6659363114       -1.7213066568
 H         -0.7631298942        3.2839496620       -0.0192908873
 H         -3.0350430482        4.3140193019       -0.4093677758
 H         -3.4472799116        2.9147860410       -1.4064987307
 C         -0.7984430606       -2.7314049128       -1.7107648947
 C         -1.3479657065       -0.7777870869       -0.2911403183
 H          0.3528029599       -0.8166628455       -1.7776587435
 C         -2.3176816734       -1.9353349638       -0.0235429541
 C         -2.2814020631       -2.7627373039       -1.3114754962
 H         -2.8956432954       -2.2739015590       -2.0679075393
 H         -2.6554796822       -3.7709860609       -1.1438585609
 H         -0.2606192973       -3.5743523247       -1.2725867011
 H         -0.6700847320       -2.7729493654       -2.7915845544
 H         -3.3228258501       -1.6426650941        0.2803262746
 H         -3.1009782104        0.3709238875        1.3386975895
48

Si                    2.93722000           1.28028000          -0.23832000         
C                     3.84963000           1.52484000          -1.86953000         
H                     3.35151000           2.28656000          -2.47626000         
H                     3.87133000           0.59035000          -2.43788000         
H                     4.88024000           1.84428000          -1.68962000         
C                     2.97096000           2.91096000           0.69951000         
H                     2.49615000           2.80316000           1.67895000         
H                     2.43558000           3.68424000           0.14066000         
H                     4.00102000           3.24631000           0.85169000         
C                     3.87633000          -0.00677000           0.76071000         
O                     1.34810000           0.81984000          -0.55192000         
H                     3.42721000          -0.13613000           1.74995000         
H                     4.91740000           0.30055000           0.89769000         
H                     3.86872000          -0.97355000           0.24886000         
C                     0.68557000           0.05792000           0.41080000         
C                    -0.28092000           0.90606000           1.27034000         
H                     0.04673000           1.95176000           1.22989000         
H                    -0.16970000           0.62159000           2.32480000         
C                     0.28448000          -1.19325000           0.07580000         
C                    -0.29240000          -1.97378000           1.20167000         
O                    -1.60093000          -2.31083000           1.08649000         
C                    -0.43310000          -1.35959000          -1.25497000         
C                    -2.05764000           0.37610000          -0.58024000         
C                    -1.81186000           0.82740000           0.86840000         
C                    -2.01190000           1.46794000          -1.63007000         
O                     0.36449000          -2.24372000           2.19954000         
C                    -2.53673000           2.15660000           1.12363000         
C                    -1.47575000           2.80554000          -1.12840000         
H                    -3.03935000           1.62411000          -1.98368000         
H                    -1.42507000           1.15235000          -2.50072000         
C                    -2.15239000           3.28042000           0.15632000         
H                    -2.37250000           2.48826000           2.15621000         
H                    -3.61841000           1.98439000           1.03474000         
H                    -1.60075000           3.56821000          -1.90648000         
H                    -0.39625000           2.73100000          -0.96319000         
H                    -1.48805000           3.99190000           0.66184000         
H                    -3.05806000           3.84600000          -0.09649000         
C                    -0.58260000          -2.82279000          -1.68852000         
C                    -1.86603000          -0.92373000          -0.92788000         
H                     0.02219000          -0.77313000          -2.05975000         
C                    -2.31374000          -2.14549000          -0.15495000         
C                    -1.90879000          -3.28755000          -1.08211000         
H                    -2.65105000          -3.42453000          -1.87766000         
H                    -1.78803000          -4.23884000          -0.55363000         
H                     0.25651000          -3.44385000          -1.35519000         
H                    -0.63149000          -2.90124000          -2.78119000         
H                    -3.38785000          -2.14575000           0.05080000         
H                    -2.28354000           0.10069000           1.54267000         
