  48
        -65.77443612
 Si         0.3258271829        3.3107912471       -0.3888320291
 C          2.1931480009        2.9500455386       -0.5047237485
 H          2.5253280320        2.3988551657        0.3717455743
 H          2.7782287844        3.8622821962       -0.5573862836
 H          2.4362017896        2.3557548918       -1.3816475024
 C         -0.3907172484        3.9781117977       -2.0162310435
 H         -1.4672756834        4.0977822144       -1.9548973286
 H         -0.1812298918        3.3179011199       -2.8518049395
 H          0.0367198037        4.9471159672       -2.2482927952
 C         -0.0063397871        4.4696145936        1.0850128953
 O         -0.5285419566        1.9100129821       -0.2146749304
 H          0.5045198685        5.4204323362        0.9744198971
 H          0.3378928117        4.0174079788        2.0113553840
 H         -1.0668891542        4.6784477822        1.1957161672
 C         -0.3699125477        0.9420021156        0.7205884033
 C         -1.0648104208        0.9271544064        1.8488078500
 H         -1.7578583599        1.7147857351        2.0797615614
 H         -0.9455506061        0.1386999448        2.5675852739
 C          0.6256075375       -0.1116576782        0.3878756221
 C          1.6907077235       -0.4029108713        1.3991940797
 O          2.0301024983       -1.7003836502        1.3423174714
 C          0.9567738398       -0.4057584882       -1.0618897130
 C         -1.1222192387       -1.9390793709       -0.3671893713
 C         -1.8838638713       -1.6455079500       -1.4150278906
 C         -1.6370112783       -2.7451149961        0.7965491574
 O          2.1698625591        0.3647817526        2.1859421589
 C         -3.3151627459       -2.0545257633       -1.5557543352
 C         -3.1610323174       -2.7148293296        0.8445127221
 H         -1.2191464459       -2.3497321087        1.7250825840
 H         -1.2970917933       -3.7817388347        0.6992271503
 C         -3.7181767677       -3.1007054723       -0.5206360481
 H         -3.4888529377       -2.4337775672       -2.5662401150
 H         -3.9362214579       -1.1595522620       -1.4403957135
 H         -3.4936631435       -1.7073024561        1.1008295495
 H         -3.5230730592       -3.4001642519        1.6129006393
 H         -3.3161085835       -4.0743399246       -0.8088224238
 H         -4.8055232824       -3.1847485743       -0.4806633900
 C          2.3603032725       -0.8626371375       -1.4188098047
 C          0.2652714762       -1.4515709297       -0.2417894280
 H          0.4151606160        0.1904839846       -1.7810533715
 C          1.4176018713       -2.3489978482        0.2263428775
 C          2.4064597500       -2.3232921929       -0.9426089580
 H          2.0509083105       -2.9942845602       -1.7247024120
 H          3.4002855847       -2.6357368973       -0.6270719912
 H          3.1151586719       -0.2642362746       -0.9049539430
 H          2.5368992081       -0.7834231394       -2.4907294308
 H          1.1340177868       -3.3525365790        0.5434779960
 H         -1.4870208025       -1.0520192110       -2.2264630037
48

Si                    0.34159000           3.44163000          -0.79474000         
C                     2.22193000           3.49617000          -0.77723000         
H                     2.61735000           2.97913000           0.10197000         
H                     2.57594000           4.53096000          -0.75310000         
H                     2.62748000           3.01399000          -1.67153000         
C                    -0.25895000           4.45430000          -2.26514000         
H                    -1.35225000           4.46933000          -2.29812000         
H                     0.10904000           4.02528000          -3.20161000         
H                     0.09869000           5.48561000          -2.19304000         
C                    -0.30378000           4.25544000           0.77398000         
O                    -0.21298000           1.85560000          -0.93628000         
H                     0.02519000           5.29733000           0.82908000         
H                     0.06448000           3.73343000           1.66214000         
H                    -1.39742000           4.23816000           0.79329000         
C                    -0.00086000           1.01079000           0.15818000         
C                    -1.34612000           0.41940000           0.62798000         
H                    -2.09993000           1.21666000           0.57455000         
H                    -1.27404000           0.14752000           1.68930000         
C                     1.05275000           0.15767000           0.11282000         
C                     1.52317000          -0.41517000           1.42267000         
O                     1.78777000          -1.76021000           1.47115000         
C                     1.01622000          -0.84915000          -1.00480000         
C                    -0.98079000          -2.05514000          -0.00521000         
C                    -1.85346000          -0.80582000          -0.21808000         
C                    -1.58737000          -3.12779000           0.86331000         
O                     1.69091000           0.30237000           2.40060000         
C                    -3.33362000          -1.08255000           0.11595000         
C                    -2.97254000          -3.56667000           0.37918000         
H                    -1.67355000          -2.73112000           1.88342000         
H                    -0.94849000          -4.01454000           0.93073000         
C                    -3.75478000          -2.47201000          -0.34777000         
H                    -3.96096000          -0.32686000          -0.37247000         
H                    -3.51261000          -0.98852000           1.19475000         
H                    -3.54766000          -3.90335000           1.25142000         
H                    -2.88440000          -4.43961000          -0.27872000         
H                    -3.58411000          -2.56082000          -1.42830000         
H                    -4.82906000          -2.61845000          -0.18897000         
C                     2.40582000          -1.36020000          -1.40060000         
C                     0.32622000          -2.01586000          -0.35062000         
H                     0.48851000          -0.49078000          -1.89551000         
C                     1.44965000          -2.66863000           0.37855000         
C                     2.59547000          -2.66005000          -0.62053000         
H                     2.52194000          -3.51535000          -1.30244000         
H                     3.57636000          -2.68451000          -0.13489000         
H                     3.19620000          -0.63463000          -1.17523000         
H                     2.45447000          -1.56507000          -2.47666000         
H                     1.24878000          -3.66007000           0.78799000         
H                    -1.81647000          -0.54573000          -1.28561000         
