  48
        -65.76946345
 Si         0.7553195731        3.1087341794       -0.6531300091
 C          0.4768961043        4.4716638493        0.6475331469
 H         -0.5611041213        4.7922220560        0.6708265070
 H          1.0851751308        5.3480052823        0.4489934751
 H          0.7324838777        4.1130236492        1.6410780347
 C          2.5709724232        2.5336012622       -0.5949998842
 H          2.7758166951        2.0284597376        0.3459919110
 H          3.2625026461        3.3657764815       -0.6762157074
 H          2.8006907599        1.8392238322       -1.3989887624
 C          0.2110315546        3.6469148880       -2.3912461843
 O         -0.2599672993        1.8381627713       -0.3744931650
 H         -0.8533228067        3.8546437015       -2.4260685962
 H          0.4213938945        2.8857021469       -3.1358425375
 H          0.7337440363        4.5492400759       -2.6881638232
 C         -0.2265767477        0.9553278056        0.6534137126
 C         -0.9005029791        1.1488157269        1.7782458575
 H         -1.4740288367        2.0446148529        1.9302833939
 H         -0.8762160267        0.4272380427        2.5730455258
 C          0.6092008557       -0.2539456881        0.4308203954
 C          1.5744681800       -0.6332542723        1.5118938174
 O          1.7135256984       -1.9680083707        1.5520866175
 C          0.9564935616       -0.6895417004       -0.9799701993
 C         -1.3451994474       -1.8635252961       -0.3319302573
 C         -2.0056972008       -1.6564825523       -1.4674710329
 C         -2.1350875847       -2.3814842733        0.8355981128
 O          2.1331443154        0.1052292934        2.2735284452
 C         -3.4686840184       -1.9521775224       -1.4930529019
 C         -3.3879290481       -1.5129581264        1.0258890162
 H         -1.5397302576       -2.3726371695        1.7491779341
 H         -2.4421461790       -3.4132665336        0.6385353049
 C         -4.1565144587       -1.2906374345       -0.2875799754
 H         -3.6183379078       -3.0351600694       -1.4332928961
 H         -3.9264931058       -1.6025119738       -2.4182136459
 H         -3.0684122213       -0.5496511906        1.4252299273
 H         -4.0326580367       -1.9833596225        1.7695718203
 H         -5.1724931943       -1.6794426019       -0.2059470772
 H         -4.2294179484       -0.2204132881       -0.4845978295
 C          2.2904164089       -1.3704445859       -1.2310748711
 C          0.0812938519       -1.5643554978       -0.1374284045
 H          0.5369334752       -0.0743531538       -1.7620166851
 C          1.0609381523       -2.5907209974        0.4448770792
 C          2.0935366602       -2.7878966574       -0.6688660762
 H          1.6753789951       -3.4481656889       -1.4288136092
 H          3.0136545360       -3.2231044705       -0.2829828725
 H          3.1022898137       -0.8574324172       -0.7116474577
 H          2.5267259113       -1.3892492567       -2.2942023800
 H          0.6100090722       -3.5174293950        0.8015628743
 H         -1.5276650248       -1.2717861924       -2.3540239246
48

Si                    0.87961960           3.23740147          -1.01790211         
C                     0.29848275           4.25840491           0.44991520         
H                    -0.77489291           4.45718179           0.37886896         
H                     0.82424640           5.21726768           0.48267329         
H                     0.48960776           3.73203542           1.38974446         
C                     2.72834703           2.92806803          -0.85060138         
H                     2.95316116           2.40868849           0.08541381         
H                     3.27765026           3.87409674          -0.85659073         
H                     3.09049277           2.31440964          -1.68074066         
C                     0.60178670           4.25299781          -2.58111960         
O                     0.03445178           1.78425301          -1.13413045         
H                    -0.46153833           4.47587491          -2.70844534         
H                     0.94729161           3.70285055          -3.46117902         
H                     1.14927436           5.19852523          -2.52732549         
C                    -0.04867113           0.98666045           0.01236768         
C                    -1.50792532           0.53547439           0.22288456         
H                    -2.15449569           1.40149756           0.02632954         
H                    -1.66007417           0.28429625           1.27997124         
C                     0.90079582           0.03868588           0.21403038         
C                     1.02851409          -0.53220986           1.59929993         
O                     1.13497100          -1.89371787           1.72038159         
C                     0.99872992          -0.99591201          -0.87128266         
C                    -1.27976896          -1.98611766          -0.33196003         
C                    -1.96033476          -0.65402937          -0.71201204         
C                    -2.16843262          -3.01230123           0.33740516         
O                     1.06615702           0.20054787           2.58196582         
C                    -3.49179810          -0.80299536          -0.67616450         
C                    -3.12780905          -2.35535323           1.32498196         
H                    -1.59001217          -3.77663354           0.86430240         
H                    -2.73921143          -3.54056935          -0.43679678         
C                    -4.02375534          -1.30343202           0.66772810         
H                    -3.79484950          -1.51191099          -1.45893269         
H                    -3.97662475           0.14712708          -0.93104522         
H                    -2.54997638          -1.88457977           2.13102752         
H                    -3.75232800          -3.11848145           1.80411252         
H                    -5.02707729          -1.71918916           0.51336606         
H                    -4.14953863          -0.46083924           1.35855736         
C                     2.38038448          -1.65267551          -0.96025718         
C                     0.07038187          -2.06742563          -0.36673530         
H                     0.70815626          -0.62077747          -1.85895163         
C                     0.94476917          -2.80162834           0.59107772         
C                     2.27065264          -2.93637596          -0.14012290         
H                     2.25735488          -3.80447011          -0.80965250         
H                     3.11924247          -3.03656651           0.54437392         
H                     3.17712433          -0.99963255          -0.58540163         
H                     2.62847980          -1.89950407          -1.99941959         
H                     0.56846478          -3.75625592           0.96144940         
H                    -1.69362446          -0.40955735          -1.74953701         
