  48
        -65.77432100
 Si         0.4794605392        3.2674222515       -0.0803377621
 C          0.8046590710        4.3421615412        1.4580328292
 H          1.5153958436        3.8608138323        2.1244642031
 H         -0.1088014689        4.5144893693        2.0207443812
 H          1.2114824837        5.3120475501        1.1910857260
 C          2.1264665902        2.9053263677       -0.9687219957
 H          2.6995285562        3.8089856901       -1.1481802731
 H          1.9696735046        2.4224574689       -1.9297058856
 H          2.7410318559        2.2413318468       -0.3652979947
 C         -0.8251557256        4.0355311926       -1.2272796625
 O         -0.2550550627        1.8539150555        0.3463184860
 H         -1.7898712746        4.1067749336       -0.7357578909
 H         -0.9614163786        3.4544047153       -2.1339399437
 H         -0.5290737775        5.0363503907       -1.5209523379
 C          0.2826066108        0.7939709591        0.9996084631
 C          0.3074930965        0.7148090133        2.3228018045
 H         -0.0656135098        1.5199251151        2.9285885516
 H          0.7187180269       -0.1413850923        2.8232170228
 C          0.8210298283       -0.2835841983        0.1293074635
 C          2.1149094471       -0.9227362141        0.5341194623
 O          2.1221002768       -2.2127781234        0.1608285056
 C          0.4874261842       -0.3021857449       -1.3523165210
 C         -1.4305484912       -1.6595975958       -0.0979811058
 C         -2.4361220282       -1.3392676009       -0.9038360891
 C         -1.6420356161       -2.2653843138        1.2626454330
 O          3.0201856937       -0.4117426305        1.1308463117
 C         -3.8775777610       -1.5403428208       -0.5599397443
 C         -3.0508700248       -2.8320593028        1.4062776334
 H         -1.4760026512       -1.4847518204        2.0122641627
 H         -0.8972010405       -3.0450717038        1.4413090259
 C         -4.0664344252       -1.7991585265        0.9318641766
 H         -4.2623710092       -2.3882253375       -1.1375707302
 H         -4.4482320576       -0.6603502367       -0.8669595502
 H         -3.2375248195       -3.1014072380        2.4472001531
 H         -3.1458889781       -3.7359100268        0.8004802496
 H         -5.0833983226       -2.1449567579        1.1252059038
 H         -3.9132628427       -0.8693839754        1.4829628900
 C          1.5140385799       -0.8488995211       -2.3283066214
 C         -0.0253870248       -1.3964126294       -0.4708139687
 H         -0.1665285036        0.4919607018       -1.6807408130
 C          1.0012564804       -2.5192606067       -0.6683171196
 C          1.4349466092       -2.3714303907       -2.1299402172
 H          0.6689497604       -2.8038149634       -2.7738629566
 H          2.3830307525       -2.8736995478       -2.3138131926
 H          2.5158543365       -0.4796337606       -2.0998707854
 H          1.2732563010       -0.5636834187       -3.3516365188
 H          0.6568505132       -3.5209935777       -0.4087377876
 H         -2.2342720563       -0.9153379638       -1.8780536293
48

Si                    0.45654000           3.46838000          -0.44775000         
C                     0.63165000           4.11701000           1.30748000         
H                     1.19784000           3.41501000           1.92669000         
H                    -0.35200000           4.26221000           1.76359000         
H                     1.15723000           5.07656000           1.31144000         
C                     2.17185000           3.25126000          -1.19136000         
H                     2.68845000           4.21370000          -1.25094000         
H                     2.10158000           2.83504000          -2.20063000         
H                     2.77841000           2.57583000          -0.58118000         
C                    -0.45146000           4.77061000          -1.46459000         
O                    -0.40905000           2.02387000          -0.48881000         
H                    -1.44806000           4.95147000          -1.05164000         
H                    -0.56186000           4.43728000          -2.50058000         
H                     0.10126000           5.71456000          -1.46170000         
C                     0.03238000           0.97115000           0.32197000         
C                    -1.18098000           0.35197000           1.05988000         
H                    -1.81438000           1.17978000           1.40463000         
H                    -0.84384000          -0.16826000           1.96536000         
C                     0.93066000           0.09427000          -0.19632000         
C                     1.69418000          -0.74949000           0.78531000         
O                     1.80375000          -2.08940000           0.52301000         
C                     0.47511000          -0.66177000          -1.42016000         
C                    -1.28231000          -1.92885000          -0.09370000         
C                    -2.03144000          -0.60458000           0.14324000         
C                    -1.60060000          -3.09186000           0.82088000         
O                     2.22314000          -0.24778000           1.77149000         
C                    -3.46133000          -0.79319000           0.67982000         
C                    -3.06853000          -3.19114000           1.21548000         
H                    -1.00103000          -2.98466000           1.73431000         
H                    -1.31004000          -4.03874000           0.35101000         
C                    -3.57976000          -1.86339000           1.75403000         
H                    -4.11155000          -1.07558000          -0.15979000         
H                    -3.85629000           0.15681000           1.05871000         
H                    -3.19003000          -3.96959000           1.97718000         
H                    -3.66719000          -3.49746000           0.34853000         
H                    -4.62873000          -1.96816000           2.05285000         
H                    -3.01618000          -1.57085000           2.64754000         
C                     1.63603000          -1.15874000          -2.28858000         
C                    -0.13079000          -1.89830000          -0.80903000         
H                    -0.23161000          -0.09987000          -2.04008000         
C                     1.07714000          -2.73960000          -0.56299000         
C                     1.89374000          -2.59512000          -1.83680000         
H                     1.54095000          -3.29403000          -2.60423000         
H                     2.96228000          -2.76760000          -1.67284000         
H                     2.53100000          -0.53465000          -2.18345000         
H                     1.36015000          -1.15028000          -3.34969000         
H                     0.88928000          -3.78077000          -0.29357000         
H                    -2.16386000          -0.10396000          -0.82674000         
