  48
        -65.76940717
 Si         0.9921047641        3.0191803816       -0.5846275749
 C          0.8042437101        4.4143788162        0.6981106254
 H         -0.2163502089        4.7858128894        0.7326608509
 H          1.4507270194        5.2564162310        0.4734988127
 H          1.0593371700        4.0615775068        1.6938315875
 C          2.7712474999        2.3377980683       -0.5350175090
 H          2.9452957428        1.8084084841        0.3988809319
 H          3.5114909097        3.1278776631       -0.6061402372
 H          2.9596873374        1.6404353141       -1.3471018289
 C          0.4599296824        3.5673970960       -2.3235643624
 O         -0.0876004469        1.8101511496       -0.2812854829
 H         -0.5929970183        3.8281344778       -2.3504671201
 H          0.6241170638        2.7894010935       -3.0625194836
 H          1.0242704313        4.4392541934       -2.6349234802
 C         -0.0803037500        0.9156252994        0.7374933063
 C         -0.6741624985        1.1562435334        1.8979489237
 H         -1.1507804847        2.1004937307        2.0871605934
 H         -0.6775441142        0.4256031325        2.6846263087
 C          0.6182401175       -0.3657400762        0.4565234736
 C          1.5117293488       -0.9194923221        1.5240484471
 O          1.4848290892       -2.2617357709        1.4906496323
 C          0.9330236049       -0.7639559815       -0.9731455420
 C         -1.5067437651       -1.6651215816       -0.4076093009
 C         -2.1205899754       -1.3058866319       -1.5313344279
 C         -2.3722526676       -2.1277520473        0.7289556063
 O          2.1452093541       -0.2993687176        2.3310989986
 C         -3.6112098033       -1.3758715479       -1.5682082188
 C         -3.4912947142       -1.1024549096        0.9710561085
 H         -1.7891743200       -2.2564306357        1.6413975116
 H         -2.8216686898       -3.0921694922        0.4728205466
 C         -4.1865599506       -0.6687131601       -0.3304811051
 H         -3.9276011253       -2.4238366761       -1.5559418964
 H         -4.0063869095       -0.9172145125       -2.4744257706
 H         -3.0474594464       -0.2298945447        1.4518989904
 H         -4.2151489089       -1.5316365168        1.6652600656
 H         -5.2577673204       -0.8673186276       -0.2756169658
 H         -4.0575164993        0.4057623678       -0.4666947961
 C          2.1788165266       -1.5878632596       -1.2469368699
 C         -0.0558026869       -1.5696173282       -0.1904409350
 H          0.6038801195       -0.0619183971       -1.7245112608
 C          0.7802118315       -2.7385613602        0.3434654444
 C          1.8010210276       -2.9993995363       -0.7681910491
 H          1.3195744145       -3.5607666200       -1.5690706176
 H          2.6543065113       -3.5644370162       -0.3972863004
 H          3.0372550226       -1.2067293006       -0.6901176852
 H          2.4305963431       -1.5772206107       -2.3066220844
 H          0.2134623896       -3.6209674856        0.6426418429
 H         -1.5849838060       -0.9460121341       -2.3950443627
48

Si                    1.20101837           3.17900198          -0.94607736         
C                     0.65687359           4.22422189           0.51896102         
H                    -0.39649709           4.50279665           0.42189493         
H                     1.25098158           5.14095182           0.57803626         
H                     0.78266171           3.67477921           1.45656085         
C                     3.01436474           2.72583307          -0.73122180         
H                     3.17051067           2.17789987           0.20250231         
H                     3.63462297           3.62660162          -0.70664207         
H                     3.35271300           2.09732333          -1.56023466         
C                     1.04635664           4.23123718          -2.50224202         
O                     0.24972070           1.79775480          -1.10672089         
H                     0.00741958           4.53767718          -2.65446138         
H                     1.37191539           3.66565167          -3.38006139         
H                     1.66400148           5.13037097          -2.42114163         
C                     0.08629430           0.98885012           0.02292257         
C                    -1.41325220           0.70100290           0.23866555         
H                    -1.95876370           1.63985646           0.07303674         
H                    -1.58415273           0.43947646           1.29022964         
C                     0.92379657          -0.06546878           0.18960235         
C                     0.99873411          -0.68242584           1.55890887         
O                     0.94906373          -2.04988627           1.64541439         
C                     0.89312031          -1.07707281          -0.92128072         
C                    -1.47970990          -1.81287609          -0.38111080         
C                    -2.00471200          -0.40274424          -0.72273152         
C                    -2.47535434          -2.74575503           0.27378858         
O                     1.13000091           0.01570689           2.55861987         
C                    -3.54271302          -0.37593184          -0.68077020         
C                    -3.35015425          -2.00661253           1.28152483         
H                    -1.98450347          -3.58126850           0.78085958         
H                    -3.10570265          -3.19001689          -0.50672710         
C                    -4.12433787          -0.84623029           0.65315226         
H                    -3.92763102          -1.02530178          -1.47910124         
H                    -3.91609386           0.62970603          -0.90890278         
H                    -2.71945688          -1.62199506           2.09351268         
H                    -4.05473822          -2.70468110           1.74862672         
H                    -5.16787251          -1.14399907           0.49341010         
H                    -4.15464728          -0.01175217           1.36418311         
C                     2.18903778          -1.88612427          -1.04164378         
C                    -0.14817870          -2.04741432          -0.43223073         
H                     0.63951780          -0.64633755          -1.89630650         
C                     0.64392880          -2.90131109           0.49732278         
C                     1.93784785          -3.17004925          -0.25364348         
H                     1.81651724          -4.01210493          -0.94512486         
H                     2.77540815          -3.38731207           0.41704786         
H                     3.05859234          -1.33961940          -0.65836398         
H                     2.39933545          -2.13195273          -2.08932281         
H                     0.16296821          -3.81498135           0.84951556         
H                    -1.71614436          -0.16361022          -1.75553334         
