  48
        -65.78456210
 Si         2.2897445043       -2.1688694965       -0.6298579378
 C          2.2781782894       -1.5141636762       -2.4161431482
 H          1.2724240228       -1.5134595683       -2.8291015059
 H          2.8973082799       -2.1294597683       -3.0613553079
 H          2.6555725087       -0.4985618441       -2.4621231201
 C          3.9004284833       -1.8348465640        0.3225585326
 H          4.7353633828       -2.3606448739       -0.1291954758
 H          3.8220802259       -2.1657484406        1.3549856600
 H          4.1355551899       -0.7767805197        0.3253546190
 C          1.9474583456       -4.0460223279       -0.6648483569
 O          0.9487802571       -1.6940503116        0.2146423164
 H          2.7296881095       -4.5654997277       -1.2072772274
 H          1.0051883997       -4.2751442706       -1.1526645501
 H          1.9082971561       -4.4670163697        0.3348347044
 C          0.3741076192       -0.6999091574        0.8824911139
 C         -0.8951451137       -1.1197019723        1.5799647147
 H         -1.0026328138       -2.1919624569        1.4146521697
 H         -0.7927207226       -0.9584502179        2.6537799483
 C          0.7309790212        0.6035729252        0.8814647961
 C          1.5089281007        1.1899669563       -0.2280566435
 O          0.8471420612        2.1069349081       -0.9693756464
 C         -0.2099870896        1.5981963561        1.5337249721
 C         -1.9881940623        0.6842521582        0.0547119066
 C         -2.2100738926       -0.4022288176        1.0820137112
 C         -2.7149636746        0.5369413368       -1.2440694906
 O          2.6179976317        0.8650865077       -0.5699210490
 C         -3.1930649160       -1.4359243675        0.5312563316
 C         -4.2126942304        0.3078105124       -1.0162906538
 H         -2.2930466545       -0.3175032026       -1.7809018319
 H         -2.5678023868        1.4194426646       -1.8670036374
 C         -4.4781203802       -0.7558534312        0.0636447900
 H         -3.4348377254       -2.1612552850        1.3109792297
 H         -2.7332228907       -1.9785320836       -0.2958560837
 H         -4.6690031640        0.0118520365       -1.9620245208
 H         -4.6676105700        1.2537698154       -0.7181012435
 H         -4.9530939384       -0.2897883102        0.9294100237
 H         -5.1663329951       -1.5130002977       -0.3145984770
 C          0.3856519953        3.0025294386        1.7070795078
 C         -1.1187986038        1.6528607153        0.3348157263
 H         -0.6487382737        1.2167484608        2.4505908126
 C         -0.4041361928        2.6590147123       -0.5213368831
 C         -0.0821206947        3.7806945461        0.4669279761
 H         -0.9870672337        4.3516557903        0.6751066234
 H          0.6803985688        4.4514415890        0.0755588342
 H          1.4744578291        2.9548227473        1.7514237260
 H          0.0319378548        3.4682044476        2.6259094248
 H         -0.9171961193        2.9861908493       -1.4261686946
 H         -2.6704268341        0.0620354773        1.9621791411
48

Si                    2.90772000          -1.71173000          -0.93106000         
C                     2.89082000          -1.07398000          -2.70043000         
H                     2.07363000          -1.53113000          -3.26583000         
H                     3.83280000          -1.31586000          -3.20188000         
H                     2.76364000           0.01188000          -2.72590000         
C                     4.27719000          -0.82986000           0.01413000         
H                     5.24770000          -1.01270000          -0.45631000         
H                     4.32131000          -1.18943000           1.04644000         
H                     4.10205000           0.24984000           0.03239000         
C                     3.34162000          -3.54773000          -0.99349000         
O                     0.25388000          -1.79229000           2.91013000         
H                     4.31572000          -3.69583000          -1.46865000         
H                     2.58920000          -4.09798000          -1.56591000         
H                     3.38139000          -3.96478000           0.01696000         
C                    -0.30417000          -1.17484000           2.00748000         
C                    -1.71730000          -1.52949000           1.50110000         
H                    -1.59080000          -2.13025000           0.59134000         
H                    -2.15819000          -2.18852000           2.26048000         
C                     0.36895000          -0.02890000           1.34524000         
C                     0.98550000          -0.24724000           0.16142000         
O                     0.91296000           0.72837000          -0.85653000         
C                    -0.32398000           1.27231000           1.56354000         
C                    -2.26453000           0.60725000           0.12551000         
C                    -2.71983000          -0.35659000           1.23664000         
C                    -3.00657000           0.50442000          -1.17670000         
O                     1.42563000          -1.51518000          -0.17315000         
C                    -4.11190000          -0.94420000           0.91434000         
C                    -4.50630000           0.72445000          -0.96453000         
H                    -2.83762000          -0.49325000          -1.60133000         
H                    -2.64318000           1.22351000          -1.91826000         
C                    -5.04776000           0.11230000           0.33264000         
H                    -4.55215000          -1.35967000           1.82904000         
H                    -4.02374000          -1.77757000           0.20508000         
H                    -5.04552000           0.30205000          -1.82136000         
H                    -4.72975000           1.79884000          -0.96688000         
H                    -5.19147000           0.90910000           1.07369000         
H                    -6.03806000          -0.32050000           0.15019000         
C                     0.58799000           2.50586000           1.47840000         
C                    -1.13485000           1.32122000           0.30636000         
H                    -0.90749000           1.29926000           2.48840000         
C                    -0.10940000           1.77412000          -0.70288000         
C                     0.55271000           2.94430000           0.01067000         
H                    -0.05055000           3.85419000          -0.09152000         
H                     1.56184000           3.15034000          -0.36051000         
H                     1.60968000           2.28723000           1.81015000         
H                     0.20746000           3.31601000           2.11175000         
H                    -0.49705000           2.03778000          -1.68890000         
H                    -2.83227000           0.22436000           2.16228000         
