  48
        -65.78348063
 Si         3.0080307862       -0.6582118248       -0.4074532429
 C          3.8896524714       -2.2442248601        0.1843748954
 H          3.2696656927       -3.1247414572        0.0478286373
 H          4.1528532231       -2.1907354311        1.2361252145
 H          4.8062302229       -2.4011692842       -0.3734413087
 C          2.5791643487       -0.8462114892       -2.2508256145
 H          3.4595463638       -1.1058297691       -2.8301610140
 H          2.1768708269        0.0775142936       -2.6520790943
 H          1.8412524986       -1.6290993959       -2.4081242805
 C          4.0763073652        0.8576110977        0.0087228251
 O          1.6548394529       -0.7630967896        0.5421053435
 H          3.6314993729        1.7635530317       -0.3865365116
 H          5.0706602118        0.7615896976       -0.4152912681
 H          4.1860607533        0.9774625594        1.0836024254
 C          0.6490540230       -0.0658308176        1.0532848192
 C         -0.1628717684       -0.8346115420        2.0687644787
 H          0.4267999519       -1.6932893846        2.3920528862
 H         -0.3733557145       -0.2336453411        2.9511137355
 C          0.1926069348        1.1442654994        0.6589687030
 C          0.3596111750        1.6492911193       -0.7153072160
 O         -0.7902531619        1.8632280836       -1.4001492075
 C         -1.0845280473        1.6343707390        1.3011846469
 C         -2.1830292148       -0.4674357255        0.4301662230
 C         -1.4839002786       -1.3787016115        1.4308324306
 C         -3.1710004166       -1.1246484803       -0.4978329691
 O          1.4036163096        1.7931370646       -1.3017433445
 C         -1.0869271491       -2.7012254380        0.7416309425
 C         -2.6444413234       -2.3938549166       -1.1559454680
 H         -3.4967160872       -0.4139419233       -1.2566927070
 H         -4.0514419856       -1.3897348056        0.0998779423
 C         -2.1986336406       -3.3533767439       -0.0654382311
 H         -0.7399099947       -3.3970243887        1.5089995030
 H         -0.2457892903       -2.4952965896        0.0756152975
 H         -1.7990036339       -2.1502083182       -1.8024537748
 H         -3.4267497104       -2.8405483969       -1.7727122531
 H         -3.0447349357       -3.5931797813        0.5833818091
 H         -1.8329717113       -4.2857551174       -0.5000993681
 C         -1.3703692678        3.1267067427        1.0686152944
 C         -1.9929664200        0.8530122642        0.3884641976
 H         -1.1586329121        1.3851671028        2.3531775843
 C         -2.0878706445        1.8086001453       -0.7717549899
 C         -2.3444657285        3.1613008739       -0.1162447775
 H         -3.3805611349        3.2122922305        0.2186918019
 H         -2.1495726325        3.9836707417       -0.8019021964
 H         -0.4478760687        3.6581635096        0.8310842671
 H         -1.8029072520        3.5858866692        1.9564427048
 H         -2.7795075441        1.5592997500       -1.5762050736
 H         -2.1785302942       -1.6049495224        2.2488241711
48

Si                    3.02576000          -0.21297000          -0.97006000         
C                     4.33881000          -1.54775000          -0.73640000         
H                     3.94536000          -2.52531000          -1.02986000         
H                     4.64840000          -1.59945000           0.31144000         
H                     5.21954000          -1.33088000          -1.34790000         
C                     2.57308000          -0.17652000          -2.79593000         
H                     3.46957000          -0.04390000          -3.40896000         
H                     1.88867000           0.64785000          -3.01473000         
H                     2.09079000          -1.11319000          -3.09013000         
C                     3.79891000           1.44200000          -0.50885000         
O                     1.27046000          -0.63424000           3.03730000         
H                     3.09914000           2.26178000          -0.69622000         
H                     4.70353000           1.62089000          -1.09727000         
H                     4.06884000           1.45476000           0.55129000         
C                     0.22613000          -0.40333000           2.43562000         
C                    -1.12275000          -1.02944000           2.84155000         
H                    -0.88985000          -1.91409000           3.44904000         
H                    -1.62484000          -0.33296000           3.52360000         
C                     0.15483000           0.62221000           1.36546000         
C                     0.70597000           0.39370000           0.15297000         
O                     0.06828000           0.89150000          -1.00650000         
C                    -1.07592000           1.45609000           1.44030000         
C                    -2.46044000          -0.46943000           0.54503000         
C                    -2.10897000          -1.44777000           1.69855000         
C                    -3.30054000          -1.07912000          -0.55723000         
O                     1.70129000          -0.55203000          -0.00138000         
C                    -1.55322000          -2.76624000           1.09527000         
C                    -2.68595000          -2.35688000          -1.10998000         
H                    -3.47142000          -0.37467000          -1.37799000         
H                    -4.29374000          -1.29957000          -0.14448000         
C                    -2.44064000          -3.36164000           0.00640000         
H                    -1.43536000          -3.51521000           1.88840000         
H                    -0.55277000          -2.59180000           0.67823000         
H                    -1.74137000          -2.12834000          -1.61928000         
H                    -3.35664000          -2.79510000          -1.85775000         
H                    -3.39753000          -3.67437000           0.44207000         
H                    -1.96695000          -4.26047000          -0.40416000         
C                    -0.90603000           2.89049000           0.91092000         
C                    -1.90694000           0.75763000           0.41559000         
H                    -1.53811000           1.49865000           2.42938000         
C                    -1.32853000           1.33861000          -0.86250000         
C                    -1.28968000           2.82936000          -0.56746000         
H                    -2.27674000           3.28227000          -0.71731000         
H                    -0.56073000           3.36479000          -1.18426000         
H                     0.11584000           3.26285000           1.04914000         
H                    -1.57556000           3.58236000           1.43566000         
H                    -1.86574000           1.10387000          -1.78320000         
H                    -3.06125000          -1.68892000           2.19238000         
