  48
        -65.78341290
 Si         2.8061801353       -0.5606403161       -0.1847153515
 C          2.2294535075        0.0086009706       -1.9066681298
 H          2.3124289190        1.0861879693       -2.0015596771
 H          1.1902265926       -0.2502602940       -2.0940293611
 H          2.8251430705       -0.4417360621       -2.6948334378
 C          4.4018554297        0.3000928304        0.3645843158
 H          4.2500794833        1.3737881766        0.4095911639
 H          5.2144510943        0.1034068438       -0.3267417193
 H          4.7157606222       -0.0321587203        1.3492859695
 C          2.9979895097       -2.4643453336       -0.2120678648
 O          1.7567426166       -0.2319960239        1.0390297391
 H          3.8394422955       -2.7591281125       -0.8299005000
 H          2.1180955407       -2.9644392154       -0.6093081398
 H          3.1753474280       -2.8557033862        0.7855467799
 C          0.4652402634        0.0078132504        1.2767277676
 C         -0.3243853973       -1.1880326918        1.7429188053
 H          0.3200523783       -2.0505854356        1.5672310043
 H         -0.5038622297       -1.1231777345        2.8177681982
 C         -0.1121496270        1.2022016567        1.0282904857
 C          0.4710369985        2.0635245183       -0.0270013212
 O         -0.3156325004        2.1926464921       -1.1220883665
 C         -1.6075345028        1.3664467176        1.1920382498
 C         -1.8597395064       -0.6599561706       -0.2432513703
 C         -1.7156770992       -1.4353236247        1.0441766221
 C         -1.7390304150       -1.3314477412       -1.5821376223
 O          1.5768931240        2.5344253130       -0.0398610703
 C         -1.9682244023       -2.9404580115        0.8965236557
 C         -2.1071035534       -2.8106503320       -1.5686014929
 H         -0.6929619848       -1.2425694830       -1.8996917442
 H         -2.3443138825       -0.7974786200       -2.3178144103
 C         -1.4103661088       -3.5010450386       -0.4039488492
 H         -3.0467105751       -3.1171046079        0.9088031444
 H         -1.5432340231       -3.4630558168        1.7556363236
 H         -1.8139205033       -3.2636623595       -2.5174970287
 H         -3.1880951975       -2.9255644334       -1.4621983204
 H         -1.5800853025       -4.5785066245       -0.4440483078
 H         -0.3344003007       -3.3243806014       -0.4622111233
 C         -2.0973094060        2.8130495845        1.0396758652
 C         -1.8943505997        0.6683932635       -0.1112310021
 H         -1.9705320429        0.8958365284        2.1008478737
 C         -1.6988941578        1.7955936921       -1.0870429036
 C         -2.4851705268        2.9389274174       -0.4423515803
 H         -3.5526982807        2.7731507154       -0.5877944518
 H         -2.2124589592        3.9014415700       -0.8708313777
 H         -1.3050113363        3.5161536354        1.2992639984
 H         -2.9478366105        3.0085974260        1.6912812053
 H         -1.9663005145        1.5898307476       -2.1241708132
 H         -2.4784986787       -1.0551501696        1.7313541887
48

Si                    2.98323000           0.33362000          -0.64124000         
C                     2.91435000           1.42024000          -2.17243000         
H                     2.93716000           2.47879000          -1.89835000         
H                     2.00748000           1.23041000          -2.75354000         
H                     3.77182000           1.21624000          -2.82109000         
C                     4.74663000           0.44601000           0.03511000         
H                     4.97851000           1.47694000           0.31796000         
H                     5.46755000           0.12223000          -0.72113000         
H                     4.85750000          -0.19016000           0.91782000         
C                     2.69308000          -1.45429000          -1.15932000         
O                     0.43762000           0.20126000           3.45571000         
H                     3.45034000          -1.77390000          -1.88099000         
H                     1.70869000          -1.56547000          -1.62071000         
H                     2.74372000          -2.11623000          -0.28966000         
C                    -0.05886000          -0.04680000           2.36066000         
C                    -0.48918000          -1.47261000           1.94130000         
H                     0.27335000          -1.86953000           1.26060000         
H                    -0.45247000          -2.08082000           2.85400000         
C                    -0.29752000           1.03684000           1.36582000         
C                     0.59055000           1.12427000           0.34777000         
O                     0.13736000           1.42165000          -0.95168000         
C                    -1.74706000           1.28964000           1.08772000         
C                    -1.99257000          -0.92428000          -0.07030000         
C                    -1.91625000          -1.59438000           1.31486000         
C                    -1.74293000          -1.77602000          -1.29116000         
O                     1.91053000           0.76639000           0.56185000         
C                    -2.41082000          -3.05281000           1.29881000         
C                    -2.33404000          -3.17639000          -1.19165000         
H                    -0.65915000          -1.86446000          -1.43281000         
H                    -2.14747000          -1.29348000          -2.18840000         
C                    -1.91445000          -3.85645000           0.10445000         
H                    -3.50932000          -3.04694000           1.27650000         
H                    -2.13084000          -3.56263000           2.22817000         
H                    -2.00071000          -3.77516000          -2.04706000         
H                    -3.42862000          -3.12326000          -1.24677000         
H                    -2.33762000          -4.86659000           0.14111000         
H                    -0.82383000          -3.96141000           0.14295000         
C                    -2.05158000           2.71112000           0.59345000         
C                    -1.91751000           0.42552000          -0.12659000         
H                    -2.39599000           1.04207000           1.93195000         
C                    -1.30228000           1.29222000          -1.20043000         
C                    -1.93458000           2.65132000          -0.93218000         
H                    -2.93227000           2.71165000          -1.38289000         
H                    -1.32974000           3.48145000          -1.31121000         
H                    -1.36862000           3.45323000           1.02290000         
H                    -3.06987000           3.00883000           0.87093000         
H                    -1.45454000           0.95072000          -2.22650000         
H                    -2.60881000          -1.07741000           1.99266000         
