  48
        -65.78411466
 Si         2.6238489741       -1.3214628111       -0.0492570676
 C          4.2664169765       -0.4689729269        0.3711199543
 H          5.0825960253       -0.8927003955       -0.2053309079
 H          4.5093735768       -0.5878110053        1.4234070586
 H          4.2197938886        0.5926579768        0.1572796113
 C          2.7436227742       -3.1845170063        0.3476093954
 H          2.9071897345       -3.3512448874        1.4074730326
 H          3.5729406308       -3.6362567363       -0.1854057443
 H          1.8439212037       -3.7242531415        0.0670247799
 C          2.0966213081       -1.1172846912       -1.8684309921
 O          1.4349270291       -0.8877248831        1.0092895407
 H          2.7367404629       -1.6946642234       -2.5280138420
 H          2.1517917756       -0.0807885194       -2.1827660189
 H          1.0756581570       -1.4575767973       -2.0273753187
 C          0.4012503422       -0.0801370947        1.2362042329
 C         -0.7479197663       -0.7856263807        1.9112838854
 H         -0.4621246874       -1.8368944570        1.9589454844
 H         -0.8585309897       -0.4238838757        2.9347786158
 C          0.2842806296        1.2000498003        0.8226379982
 C          1.0550333443        1.6816732909       -0.3436011567
 O          0.3049702807        1.9447401194       -1.4373859944
 C         -1.0489051156        1.9060092551        0.9861918226
 C         -2.0692900184       -0.0560413827       -0.1711577206
 C         -2.1561617771       -0.6692806444        1.2056755566
 C         -2.2186742435       -0.8790595624       -1.4205645707
 O          2.2535289949        1.7602279239       -0.4253533563
 C         -2.8719564824       -2.0240014972        1.2317924851
 C         -2.9939091580       -2.1777366146       -1.2295235402
 H         -1.2065283866       -1.1270717754       -1.7626842570
 H         -2.6813764502       -0.2762196194       -2.2051813156
 C         -2.5128452403       -2.8859364350        0.0297329764
 H         -3.9512465230       -1.8518963523        1.2200226949
 H         -2.6355038482       -2.5402922989        2.1640208577
 H         -2.8549280262       -2.8118870328       -2.1071253556
 H         -4.0614376684       -1.9653226924       -1.1367939909
 H         -2.9880598371       -3.8643715030        0.1195873659
 H         -1.4322095125       -3.0346831538       -0.0197726594
 C         -1.0078318361        3.4034006901        0.6512070432
 C         -1.6394894773        1.2075029000       -0.2097994099
 H         -1.5011691808        1.7066054441        1.9529494987
 C         -1.1249225181        2.0682113732       -1.3291604455
 C         -1.4206089633        3.4832201717       -0.8274419129
 H         -2.4859980430        3.6895176378       -0.9302439369
 H         -0.8577482447        4.2300293449       -1.3841985556
 H         -0.0043046172        3.8036885338        0.8007112761
 H         -1.6919066058        3.9652979092        1.2856546334
 H         -1.5110739417        1.8496003580       -2.3252126442
 H         -2.7502138311        0.0165502607        1.8190498315
48

Si                    2.90086000          -0.63173000          -0.51605000         
C                     4.73825000          -0.66406000          -0.06572000         
H                     5.28275000          -1.34174000          -0.72960000         
H                     4.87186000          -1.00368000           0.96530000         
H                     5.16886000           0.33698000          -0.16100000         
C                     2.25688000          -2.40053000          -0.37270000         
H                     2.35649000          -2.75865000           0.65622000         
H                     2.82194000          -3.06913000          -1.02849000         
H                     1.20169000          -2.44883000          -0.65445000         
C                     2.78931000          -0.11977000          -2.32015000         
O                     0.51427000           0.48467000           3.45253000         
H                     3.47337000          -0.72076000          -2.92727000         
H                     3.05970000           0.93268000          -2.44491000         
H                     1.77924000          -0.27166000          -2.71188000         
C                    -0.03904000           0.29059000           2.37406000         
C                    -0.86248000          -0.98514000           2.07610000         
H                    -0.23878000          -1.65640000           1.47479000         
H                    -1.02031000          -1.47595000           3.04495000         
C                     0.04336000           1.29882000           1.28014000         
C                     0.92525000           1.04103000           0.28540000         
O                     0.58861000           1.35313000          -1.04454000         
C                    -1.27375000           1.92394000           0.93505000         
C                    -2.11503000          -0.22964000          -0.03995000         
C                    -2.25339000          -0.76078000           1.39931000         
C                    -2.08658000          -1.22914000          -1.17096000         
O                     2.09172000           0.35149000           0.56344000         
C                    -3.13930000          -2.01754000           1.48530000         
C                    -3.04541000          -2.39734000          -0.97900000         
H                    -1.06641000          -1.62384000          -1.25566000         
H                    -2.32325000          -0.74175000          -2.12381000         
C                    -2.86258000          -3.03858000           0.38996000         
H                    -4.19075000          -1.70778000           1.40937000         
H                    -3.03503000          -2.49315000           2.46763000         
H                    -2.87238000          -3.14440000          -1.76215000         
H                    -4.08048000          -2.05111000          -1.09196000         
H                    -3.55335000          -3.88296000           0.49343000         
H                    -1.84661000          -3.43827000           0.48984000         
C                    -1.16121000           3.32438000           0.31511000         
C                    -1.66941000           1.03688000          -0.20869000         
H                    -1.97316000           1.94400000           1.77494000         
C                    -0.82819000           1.60096000          -1.33001000         
C                    -1.06195000           3.09947000          -1.19626000         
H                    -2.00325000           3.39056000          -1.67730000         
H                    -0.25074000           3.69451000          -1.62808000         
H                    -0.29656000           3.87782000           0.69939000         
H                    -2.05363000           3.92115000           0.53847000         
H                    -1.05975000           1.22428000          -2.32857000         
H                    -2.78399000          -0.00985000           2.00005000         
