  48
        -65.78471370
 Si         2.4737660477       -2.1877029162        0.1427423186
 C          2.2360704634       -4.0344319285        0.5671931496
 H          1.9494734121       -4.1800712715        1.6043317483
 H          3.1549777826       -4.5860262422        0.4018523100
 H          1.4676742215       -4.4884772305       -0.0506639425
 C          3.0061470296       -2.0357858397       -1.6742633780
 H          2.2275260521       -2.3927004994       -2.3432207770
 H          3.8989290410       -2.6221112994       -1.8667304350
 H          3.2205540440       -1.0043871391       -1.9312763277
 C          3.6688143586       -1.3971730509        1.3929093857
 O          0.9192204962       -1.6478554138        0.3447066504
 H          4.6098942905       -1.9358161382        1.4330305738
 H          3.2457931036       -1.3959091452        2.3944770052
 H          3.8842159289       -0.3707085989        1.1189811041
 C          0.2563704588       -0.6082870708        0.8449390543
 C         -1.0715054293       -0.9820761952        1.4529057723
 H         -1.1631998044       -2.0642097716        1.3546189326
 H         -1.0609104669       -0.7465111695        2.5182236429
 C          0.6045588860        0.6929027425        0.7343757238
 C          1.4670806429        1.1507472608       -0.3738535335
 O          0.8713596739        1.9845193455       -1.2558745334
 C         -0.3901507672        1.7401744996        1.1931148250
 C         -2.0382294170        0.6579863651       -0.3198490196
 C         -2.3412630939       -0.3086941096        0.8016930128
 C         -2.6507516472        0.3567240130       -1.6501207038
 O          2.5906515300        0.7794622561       -0.6027854296
 C         -3.3120482717       -1.3819206203        0.3078256567
 C         -4.1648408731        0.1446898423       -1.5356933824
 H         -2.1849947747       -0.5526954532       -2.0406547110
 H         -2.4431394650        1.1593537109       -2.3579755553
 C         -4.5380959517       -0.7284211955       -0.3254735698
 H         -3.6270018949       -2.0039393952        1.1483166046
 H         -2.8156835096       -2.0282351270       -0.4172412560
 H         -4.5226040699       -0.3134113448       -2.4590277446
 H         -4.6501426442        1.1179001681       -1.4466284301
 H         -5.0277584604       -0.1149408691        0.4338573817
 H         -5.2470605109       -1.5016186338       -0.6245468374
 C          0.1878140834        3.1604203621        1.2658658535
 C         -1.1954402372        1.6592954471       -0.0760879893
 H         -0.9024583414        1.4508740586        2.1059017882
 C         -0.4106920956        2.5736616909       -0.9724697387
 C         -0.1694972091        3.7968470387       -0.0868062930
 H         -1.0864759600        4.3823966325       -0.0194990349
 H          0.6262383211        4.4252990295       -0.4822518859
 H          1.2685221207        3.1278727469        1.4099120091
 H         -0.2452903464        3.7183628625        2.0949416189
 H         -0.8471916147        2.7992356754       -1.9459528415
 H         -2.8445939671        0.2548594558        1.5962448813
48

Si                    2.80540000          -1.85470000          -0.24924000         
C                     3.04394000          -3.68211000           0.14777000         
H                     2.65266000          -3.90874000           1.14399000         
H                     4.10532000          -3.94568000           0.12492000         
H                     2.51605000          -4.30454000          -0.58041000         
C                     3.51055000          -1.53297000          -1.96337000         
H                     2.97631000          -2.12133000          -2.71500000         
H                     4.56894000          -1.80801000          -2.00006000         
H                     3.42150000          -0.47491000          -2.22597000         
C                     3.81091000          -0.86163000           0.99949000         
O                     0.02048000          -1.73035000           2.57441000         
H                     4.85700000          -1.18141000           0.98823000         
H                     3.41708000          -1.00613000           2.00984000         
H                     3.77689000           0.20620000           0.76371000         
C                    -0.55713000          -0.82172000           1.98416000         
C                    -2.06881000          -0.57125000           2.14059000         
H                    -2.50145000          -1.50797000           2.51576000         
H                    -2.18129000           0.14051000           2.96900000         
C                     0.19497000           0.19433000           1.20670000         
C                     0.82073000          -0.16228000           0.06148000         
O                     0.84753000           0.73271000          -1.03004000         
C                    -0.37006000           1.57044000           1.31273000         
C                    -2.32188000           0.90344000          -0.13556000         
C                    -2.92206000          -0.05936000           0.92284000         
C                    -2.95016000           0.84925000          -1.51433000         
O                     1.17202000          -1.47289000          -0.18717000         
C                    -3.49844000          -1.29327000           0.18937000         
C                    -4.41796000           0.45029000          -1.44249000         
H                    -2.40528000           0.12774000          -2.13589000         
H                    -2.87778000           1.82921000          -2.00098000         
C                    -4.59698000          -0.92960000          -0.81488000         
H                    -3.91763000          -2.01493000           0.90115000         
H                    -2.68660000          -1.81574000          -0.33485000         
H                    -4.86484000           0.46085000          -2.44321000         
H                    -4.96877000           1.19258000          -0.84983000         
H                    -5.57633000          -0.96589000          -0.32202000         
H                    -4.62244000          -1.69534000          -1.59961000         
C                     0.65788000           2.70109000           1.13881000         
C                    -1.16621000           1.57568000           0.05396000         
H                    -0.95608000           1.75511000           2.21592000         
C                    -0.09301000           1.86437000          -0.97726000         
C                     0.65203000           3.03464000          -0.35426000         
H                     0.11364000           3.97446000          -0.52490000         
H                     1.67239000           3.14080000          -0.73617000         
H                     1.65589000           2.40668000           1.48415000         
H                     0.36501000           3.58718000           1.71445000         
H                    -0.45056000           2.07460000          -1.98764000         
H                    -3.77864000           0.47026000           1.36542000         
