  48
        -65.78430932
 Si         2.5785952100       -1.9371224984       -0.1568124972
 C          3.8177819417       -0.9855817852        0.9272597837
 H          3.4914510628       -0.9564126145        1.9640154761
 H          3.9228954339        0.0362142843        0.5807944789
 H          4.7989982823       -1.4481403226        0.9032465647
 C          2.5419246699       -3.7697540665        0.3810297070
 H          2.3716980483       -3.8784868749        1.4480116275
 H          3.4836568546       -4.2550573115        0.1494949619
 H          1.7581403651       -4.3181837874       -0.1321604515
 C          2.9136204708       -1.8464750535       -2.0235265156
 O          1.0116396357       -1.4973896243        0.1616577001
 H          2.1149570794       -2.3185463544       -2.5893488746
 H          3.8392155730       -2.3540535508       -2.2752084269
 H          2.9944567790       -0.8170169995       -2.3541799268
 C          0.3488676339       -0.5103972679        0.7652860686
 C         -0.8469233558       -1.0056861995        1.5409124759
 H         -0.9473592534       -2.0593088435        1.2759317210
 H         -0.6369059025       -0.9528820368        2.6110683917
 C          0.5979455034        0.8083353009        0.6056075763
 C          1.2404670547        1.2769076631       -0.6415516735
 O          0.4424232501        2.0181110987       -1.4406340746
 C         -0.3586074355        1.8206160577        1.2063166635
 C         -2.1915844062        0.5861287949        0.0493403364
 C         -2.2210873172       -0.2794342037        1.2860542844
 C         -2.8483695966        0.1518820840       -1.2302140888
 O          2.3381878065        0.9776631835       -1.0374797427
 C         -3.3683353296       -1.2960129849        1.3017798008
 C         -4.0166816066       -0.8074504819       -1.0337463061
 H         -2.0805958848       -0.3544131931       -1.8279888593
 H         -3.1703168278        1.0285024963       -1.7962825447
 C         -3.6152737169       -1.9137940029       -0.0673982349
 H         -4.2826170221       -0.7866933831        1.6169838031
 H         -3.1548931075       -2.0695310086        2.0420853657
 H         -4.3063199440       -1.2253202238       -1.9996468559
 H         -4.8774918531       -0.2696993669       -0.6297090964
 H         -4.4068013043       -2.6621252265        0.0028817873
 H         -2.7113494842       -2.4076363380       -0.4291633555
 C          0.1352526379        3.2714458557        1.1185544376
 C         -1.3692197385        1.6358862905        0.1056229094
 H         -0.6604144520        1.5436313682        2.2120778506
 C         -0.8067798161        2.5406878736       -0.9536456051
 C         -0.4921791518        3.8187619136       -0.1734575240
 H         -1.4181977299        4.3555088270        0.0327716534
 H          0.1809171620        4.4696341428       -0.7282673471
 H          1.2244526907        3.3046709566        1.0703052453
 H         -0.1805752010        3.8458816856        1.9883601706
 H         -1.4231563029        2.6907983834       -1.8405572174
 H         -2.3815906693        0.3898214107        2.1379294186
48

Si                    3.04065000          -1.47419000          -0.54111000         
C                     4.04475000          -0.28864000           0.52288000         
H                     3.76519000          -0.38670000           1.57602000         
H                     3.87655000           0.74769000           0.21514000         
H                     5.11337000          -0.50353000           0.42983000         
C                     3.50101000          -3.23214000          -0.03414000         
H                     3.22631000          -3.40926000           1.01001000         
H                     4.57679000          -3.39629000          -0.14259000         
H                     2.97323000          -3.95978000          -0.65749000         
C                     3.54165000          -1.23480000          -2.33712000         
O                     0.56291000          -1.35312000           2.82973000         
H                     2.99852000          -1.93060000          -2.98335000         
H                     4.61349000          -1.41454000          -2.46363000         
H                     3.32259000          -0.21530000          -2.66722000         
C                    -0.12609000          -0.85586000           1.94417000         
C                    -1.53518000          -1.37655000           1.58439000         
H                    -1.44147000          -2.01252000           0.69591000         
H                    -1.83931000          -2.02528000           2.41552000         
C                     0.38403000           0.29149000           1.14626000         
C                     0.91084000           0.00122000          -0.06652000         
O                     0.67246000           0.85292000          -1.16229000         
C                    -0.39617000           1.55810000           1.30755000         
C                    -2.36519000           0.56055000           0.11364000         
C                    -2.63118000          -0.28329000           1.37541000         
C                    -2.99867000           0.11724000          -1.18307000         
O                     1.38781000          -1.26430000          -0.34575000         
C                    -4.04768000          -0.88643000           1.40228000         
C                    -4.41979000          -0.40799000          -1.01799000         
H                    -2.37808000          -0.67837000          -1.61529000         
H                    -3.01756000           0.94142000          -1.90545000         
C                    -4.48879000          -1.47303000           0.06827000         
H                    -4.75727000          -0.09607000           1.68299000         
H                    -4.12320000          -1.65141000           2.18419000         
H                    -4.76689000          -0.82845000          -1.96876000         
H                    -5.09598000           0.41975000          -0.76957000         
H                    -5.51646000          -1.84383000           0.15330000         
H                    -3.85794000          -2.32911000          -0.19834000         
C                     0.40417000           2.83684000           1.01725000         
C                    -1.31643000           1.41625000           0.13068000         
H                    -0.88780000           1.63857000           2.28045000         
C                    -0.41228000           1.83148000          -1.00977000         
C                     0.20970000           3.11504000          -0.47632000         
H                    -0.47322000           3.96260000          -0.60996000         
H                     1.16315000           3.35597000          -0.95725000         
H                     1.46446000           2.72689000           1.27302000         
H                     0.01544000           3.68009000           1.60054000         
H                    -0.90504000           1.96920000          -1.97465000         
H                    -2.59739000           0.37648000           2.25272000         
