  48
        -65.78481337
 Si         2.1169068601       -2.0664368725       -0.2491906657
 C          3.9846872917       -1.8124962224       -0.0332860671
 H          4.2541354716       -0.7744667358       -0.1929699830
 H          4.5447030729       -2.4181038538       -0.7386323347
 H          4.3038878315       -2.0908643602        0.9671452431
 C          1.6625218482       -3.8912462234        0.0768437927
 H          0.6102851378       -4.0925962977       -0.1015696874
 H          1.8791218784       -4.1714782003        1.1026769770
 H          2.2340781633       -4.5489338031       -0.5687370977
 C          1.4673218097       -1.5589130536       -1.9671629110
 O          1.2887185336       -1.3321707792        0.9770789438
 H          1.6075653814       -2.3506456683       -2.6965943765
 H          1.9827073788       -0.6780270534       -2.3345358648
 H          0.4059473448       -1.3240552640       -1.9353759416
 C          0.5440644331       -0.2671635494        1.2632679597
 C         -0.7154973780       -0.5924246145        2.0222674335
 H         -0.6873041399       -1.6603596794        2.2388290487
 H         -0.7234994596       -0.0603394680        2.9740172806
 C          0.7553160935        0.9972520138        0.8401927200
 C          1.5606880680        1.2823256901       -0.3650503064
 O          0.8641107502        1.8041847064       -1.4015430455
 C         -0.3352375718        2.0206492121        1.0817499055
 C         -1.8762775951        0.4424686983       -0.0707207856
 C         -2.0561177935       -0.2737197484        1.2489065038
 C         -2.5121683201       -0.1930407643       -1.2668558412
 O          2.7235158597        1.0132419867       -0.5243517637
 C         -2.8434706752       -1.5653774889        1.0253487343
 C         -3.9865157141       -0.4966804101       -0.9864046342
 H         -1.9883195270       -1.1241175153       -1.5008894986
 H         -2.4278910451        0.4598557563       -2.1360572059
 C         -4.1714583334       -1.2844829917        0.3230236810
 H         -3.0448713167       -2.0415764541        1.9871740486
 H         -2.2445847450       -2.2587436862        0.4326928321
 H         -4.3998404461       -1.0541411077       -1.8280519510
 H         -4.5259962361        0.4501169629       -0.9266496583
 H         -4.8095039701       -0.7178352695        1.0040102419
 H         -4.6722268345       -2.2333325310        0.1253680234
 C          0.0858071294        3.4679425076        0.7912496322
 C         -1.1416519925        1.5528272138       -0.1006580459
 H         -0.8049853782        1.9105541387        2.0542155679
 C         -0.4736201204        2.3029730139       -1.2182673024
 C         -0.3609103033        3.7211155451       -0.6574772500
 H         -1.3375740620        4.2040554060       -0.6926931757
 H          0.3525798363        4.3183719472       -1.2219768896
 H          1.1658327955        3.5808412836        0.8932152886
 H         -0.3914424354        4.1616884376        1.4819805853
 H         -0.9430586462        2.2401054043       -2.2005486227
 H         -2.6507063770        0.3752591613        1.9025033672
48

Si                    2.63241000          -1.43916000          -0.80615000         
C                     4.26997000          -2.25758000          -0.33460000         
H                     5.07246000          -1.51434000          -0.31880000         
H                     4.53219000          -3.03712000          -1.05578000         
H                     4.19632000          -2.71091000           0.65796000         
C                     1.31873000          -2.78880000          -0.86681000         
H                     0.34986000          -2.36665000          -1.14715000         
H                     1.21777000          -3.26352000           0.11370000         
H                     1.58700000          -3.55765000          -1.59703000         
C                     2.84684000          -0.73683000          -2.53524000         
O                     1.00677000           0.20053000           3.38782000         
H                     3.31473000          -1.47740000          -3.19124000         
H                     3.48247000           0.15296000          -2.51558000         
H                     1.88229000          -0.46718000          -2.97479000         
C                     0.32385000           0.17271000           2.36864000         
C                    -0.83503000          -0.82856000           2.16907000         
H                    -0.44622000          -1.65184000           1.55708000         
H                    -1.05239000          -1.24556000           3.16123000         
C                     0.57515000           1.12481000           1.25457000         
C                     1.26730000           0.66865000           0.18446000         
O                     0.90281000           1.08358000          -1.11269000         
C                    -0.55812000           2.06801000           1.03048000         
C                    -2.04184000           0.25786000           0.13572000         
C                    -2.17875000          -0.29807000           1.56432000         
C                    -2.61577000          -0.59426000          -0.96063000         
O                     2.23346000          -0.30698000           0.35550000         
C                    -3.23374000          -1.42646000           1.60974000         
C                    -4.10133000          -0.86481000          -0.71574000         
H                    -2.06988000          -1.54538000          -0.99113000         
H                    -2.49595000          -0.13579000          -1.94777000         
C                    -4.45622000          -1.09121000           0.75827000         
H                    -3.54566000          -1.59173000           2.64817000         
H                    -2.80035000          -2.37288000           1.26050000         
H                    -4.39734000          -1.74282000          -1.30297000         
H                    -4.70087000          -0.02924000          -1.09871000         
H                    -4.93138000          -0.18552000           1.15645000         
H                    -5.20183000          -1.89056000           0.83815000         
C                    -0.15040000           3.40941000           0.40525000         
C                    -1.26589000           1.34119000          -0.07033000         
H                    -1.16043000           2.23839000           1.92774000         
C                    -0.42189000           1.69900000          -1.26655000         
C                    -0.24545000           3.20332000          -1.10960000         
H                    -1.11702000           3.74011000          -1.50255000         
H                     0.65174000           3.57865000          -1.61232000         
H                     0.85647000           3.71827000           0.70927000         
H                    -0.83973000           4.20579000           0.71044000         
H                    -0.83128000           1.41756000          -2.23873000         
H                    -2.55623000           0.51031000           2.20546000         
