  48
        -65.78426748
 Si         2.5335289773       -1.9080627580       -0.4576604254
 C          2.8219242688       -1.4332906552       -2.2745110340
 H          1.9789874318       -1.7248568365       -2.8955942774
 H          3.7054071113       -1.9256913424       -2.6680343257
 H          2.9600159644       -0.3629949681       -2.3800684309
 C          3.8429851895       -1.2539038055        0.7557277514
 H          3.9665860337       -0.1827213584        0.6448179967
 H          4.8071139982       -1.7203380243        0.5817420755
 H          3.5600667187       -1.4548335633        1.7860546688
 C          2.4355453439       -3.8108090714       -0.3266593450
 O          0.9942505530       -1.5147285917        0.0111555101
 H          2.2859361323       -4.1410746131        0.6968109315
 H          3.3516264334       -4.2663798764       -0.6861002255
 H          1.6188865778       -4.2090076479       -0.9207658628
 C          0.3238264540       -0.6230868624        0.7389053171
 C         -0.9019155490       -1.2170748090        1.3881553998
 H         -0.9864160467       -2.2261498514        0.9824698507
 H         -0.7405326626       -1.3050540969        2.4642336604
 C          0.5827286941        0.7021265134        0.7997983109
 C          1.2843073575        1.3621217595       -0.3222093205
 O          0.5245983848        2.2244885292       -1.0319202201
 C         -0.4016549638        1.6131237450        1.5096892884
 C         -2.1742811088        0.5877468819        0.0845709336
 C         -2.2664698403       -0.4598010453        1.1677848145
 C         -2.7578820780        0.3624409328       -1.2816965292
 O          2.4032006915        1.1281297060       -0.7027673409
 C         -3.4027806091       -1.4665080719        0.9571335611
 C         -3.9190415523       -0.6249581299       -1.3087126582
 H         -1.9514861573       -0.0337608370       -1.9109748650
 H         -3.0636847718        1.3171068998       -1.7150066779
 C         -3.5577633653       -1.8659497179       -0.5035092104
 H         -4.3396112981       -1.0116178477        1.2889112968
 H         -3.2280369296       -2.3443885830        1.5821591283
 H         -4.1433334824       -0.8885984818       -2.3439336192
 H         -4.8116475994       -0.1638177982       -0.8797845731
 H         -4.3396136259       -2.6215768033       -0.5991920609
 H         -2.6255782740       -2.2908097083       -0.8808362805
 C          0.0934880726        3.0566133088        1.6759369135
 C         -1.3580009808        1.6108793069        0.3465750146
 H         -0.7511574913        1.1825520130        2.4433441684
 C         -0.7477720326        2.6690686251       -0.5280593080
 C         -0.4737689262        3.8054127115        0.4593172647
 H         -1.4100324308        4.3068338070        0.7045349559
 H          0.2228871223        4.5330847016        0.0473895232
 H          1.1836762969        3.0908807141        1.6841784429
 H         -0.2636217283        3.4878593586        2.6101654194
 H         -1.3218859192        2.9612150126       -1.4078862479
 H         -2.4819138800        0.0691372142        2.1022850566
48

Si                    3.02423000          -1.40013000          -0.74758000         
C                     3.50399000          -0.80722000          -2.46521000         
H                     2.93878000          -1.34784000          -3.23007000         
H                     4.57030000          -0.97440000          -2.64468000         
H                     3.30033000           0.26154000          -2.57739000         
C                     4.05603000          -0.46741000           0.52089000         
H                     3.90222000           0.61188000           0.42925000         
H                     5.12025000          -0.67480000           0.37559000         
H                     3.78215000          -0.77057000           1.53578000         
C                     3.46546000          -3.22995000          -0.61621000         
O                     0.47289000          -1.77227000           2.62777000         
H                     3.20319000          -3.61244000           0.37473000         
H                     4.53687000          -3.38147000          -0.77450000         
H                     2.91747000          -3.80913000          -1.36514000         
C                    -0.18461000          -1.14308000           1.80375000         
C                    -1.58178000          -1.59278000           1.32435000         
H                    -1.46077000          -2.08594000           0.35238000         
H                    -1.91407000          -2.35895000           2.03617000         
C                     0.35406000           0.10726000           1.20475000         
C                     0.91231000           0.00025000          -0.02386000         
O                     0.71343000           1.01427000          -0.98084000         
C                    -0.42507000           1.34116000           1.53679000         
C                    -2.35924000           0.55447000           0.14373000         
C                    -2.66771000          -0.47231000           1.25092000         
C                    -2.94886000           0.31937000          -1.22632000         
O                     1.37905000          -1.21659000          -0.48125000         
C                    -4.08471000          -1.06386000           1.13709000         
C                    -4.37293000          -0.22258000          -1.19355000         
H                    -2.31159000          -0.40044000          -1.75618000         
H                    -2.94638000           1.24597000          -1.81192000         
C                    -4.47714000          -1.44023000          -0.28510000         
H                    -4.80356000          -0.32082000           1.50863000         
H                    -4.18825000          -1.93767000           1.79133000         
H                    -4.68448000          -0.49283000          -2.20901000         
H                    -5.06049000           0.55900000          -0.84651000         
H                    -5.50608000          -1.81703000          -0.29361000         
H                    -3.83496000          -2.24749000          -0.65646000         
C                     0.38985000           2.64159000           1.47117000         
C                    -1.31004000           1.39063000           0.32543000         
H                    -0.94645000           1.27500000           2.49522000         
C                    -0.36964000           1.96869000          -0.70999000         
C                     0.24276000           3.14831000           0.03336000         
H                    -0.43110000           4.01323000           0.01212000         
H                     1.21175000           3.45087000          -0.37641000         
H                     1.44123000           2.48358000           1.73826000         
H                    -0.01260000           3.38855000           2.16581000         
H                    -0.83236000           2.25910000          -1.65569000         
H                    -2.66214000           0.04431000           2.22007000         
