  48
        -65.78184978
 Si         3.1218748344        0.6640840708       -0.0931610256
 C          4.0427295069       -0.6624687179       -1.1036306594
 H          3.5789392167       -0.7996215334       -2.0758414231
 H          4.0529936657       -1.6281661308       -0.6058693706
 H          5.0741887025       -0.3713425671       -1.2707559630
 C          3.2922716966        2.3960146259       -0.8511125994
 H          2.3251015651        2.8897111703       -0.8782279023
 H          3.6618036478        2.3483504284       -1.8710210597
 H          3.9749965688        3.0238522829       -0.2870903867
 C          3.6794807972        0.6469019462        1.7332875856
 O          1.5537893767        0.1587777327       -0.1796814597
 H          3.5803781181       -0.3398626218        2.1782122000
 H          3.0774580147        1.3330953419        2.3231171429
 H          4.7162552948        0.9483293223        1.8386658062
 C          0.5194589334        0.0624600009        0.6670883593
 C          0.4021021140       -1.2328098980        1.4159837825
 H          1.3086835479       -1.8032462797        1.2207876102
 H          0.3557893991       -1.0326146977        2.4873195142
 C         -0.4892792013        0.9559624920        0.7115197807
 C         -0.7097311263        1.8938265338       -0.4174769688
 O         -1.8491800850        1.6730897667       -1.1104435762
 C         -1.7614807877        0.5766817104        1.4404015242
 C         -1.7792672691       -1.4682249568        0.0161010137
 C         -0.8486016813       -2.1159175249        1.0162475671
 C         -1.9423759001       -2.1758223083       -1.2929519676
 O          0.0537740663        2.7425849057       -0.7957253903
 C         -0.3884258111       -3.4739395186        0.4832193587
 C         -0.5390746145       -2.4529529137       -1.8399415630
 H         -2.4993022049       -1.5555480404       -1.9947938379
 H         -2.4871870253       -3.1148988670       -1.1673966188
 C          0.2630089610       -3.3635485297       -0.8970656764
 H         -1.2561471534       -4.1339882404        0.4232284006
 H          0.3120342174       -3.9296460339        1.1862937793
 H         -0.0273597878       -1.4948948525       -1.9499642346
 H         -0.6136805712       -2.9030712006       -2.8307934822
 H          0.3466973739       -4.3670417693       -1.3188009947
 H          1.2748560470       -2.9693533591       -0.7971106952
 C         -2.7525024399        1.7347430025        1.6163859408
 C         -2.2524064911       -0.2512797976        0.2807534623
 H         -1.5699470550        0.0422422507        2.3662137841
 C         -2.8737022044        0.8084177168       -0.5863483877
 C         -3.6991987919        1.6235908886        0.4106698414
 H         -4.6037914848        1.0720865956        0.6674032652
 H         -3.9770909209        2.5925301660        0.0002538338
 H         -2.2286950164        2.6915124006        1.6158311065
 H         -3.2944024310        1.6484299808        2.5572571869
 H         -3.4347600395        0.4624404484       -1.4548029544
 H         -1.4122285042       -2.2889766081        1.9401277089
48

Si                    2.92663000           1.32786000          -0.36210000         
C                     4.54824000           0.57663000          -0.96148000         
H                     4.42265000           0.14018000          -1.95662000         
H                     4.88029000          -0.21043000          -0.27822000         
H                     5.32918000           1.34080000          -1.01479000         
C                     2.44359000           2.69088000          -1.56744000         
H                     1.54823000           3.21586000          -1.22199000         
H                     2.23917000           2.27306000          -2.55745000         
H                     3.25222000           3.42172000          -1.66217000         
C                     3.23691000           2.11103000           1.32257000         
O                     1.68831000          -1.21413000           2.41593000         
H                     3.53148000           1.34878000           2.04986000         
H                     2.33456000           2.60818000           1.69044000         
H                     4.03700000           2.85428000           1.25884000         
C                     0.54994000          -1.18905000           1.95539000         
C                    -0.42889000          -2.36466000           2.12525000         
H                     0.17836000          -3.24306000           2.37813000         
H                    -1.00401000          -2.15833000           3.03796000         
C                    -0.00854000           0.04207000           1.34212000         
C                     0.49239000           0.49676000           0.17004000         
O                    -0.37435000           1.07176000          -0.78405000         
C                    -1.45957000           0.25047000           1.62697000         
C                    -2.05451000          -1.63503000           0.06792000         
C                    -1.43704000          -2.73375000           0.97514000         
C                    -2.42554000          -2.12170000          -1.31304000         
O                     1.75040000           0.13485000          -0.26620000         
C                    -0.80997000          -3.85440000           0.09356000         
C                    -1.18655000          -2.59810000          -2.07154000         
H                    -2.94820000          -1.35988000          -1.90092000         
H                    -3.14247000          -2.94668000          -1.20944000         
C                    -0.16724000          -3.31152000          -1.17907000         
H                    -1.59803000          -4.56660000          -0.18829000         
H                    -0.07492000          -4.44404000           0.65272000         
H                    -0.69509000          -1.74893000          -2.56247000         
H                    -1.50707000          -3.27168000          -2.87569000         
H                     0.30294000          -4.12635000          -1.74151000         
H                     0.63762000          -2.61636000          -0.91149000         
C                    -1.90573000           1.72191000           1.63431000         
C                    -2.01287000          -0.31784000           0.36443000         
H                    -1.82165000          -0.23641000           2.53520000         
C                    -1.81410000           0.84167000          -0.59239000         
C                    -2.35145000           2.02175000           0.20259000         
H                    -3.44603000           2.05943000           0.15192000         
H                    -1.95149000           2.98166000          -0.13950000         
H                    -1.10233000           2.39410000           1.95783000         
H                    -2.74805000           1.87145000           2.32017000         
H                    -2.28792000           0.74248000          -1.57070000         
H                    -2.28750000          -3.21007000           1.48570000         
