  48
        -65.78066248
 Si         3.3093523471       -0.3684182058        0.1552837877
 C          3.3336748865       -2.2538597567       -0.1736453679
 H          4.3345366747       -2.5838388208       -0.4332216641
 H          2.6832648312       -2.5149807490       -1.0044169249
 H          3.0198427634       -2.8389967159        0.6873305865
 C          4.2137376660        0.5750989812       -1.2152675690
 H          5.2903055693        0.5108959676       -1.0972964691
 H          3.9318860264        1.6230593417       -1.2031103749
 H          3.9665679660        0.1840804884       -2.1972813122
 C          4.0088574165       -0.0217640555        1.8956544777
 O          1.7898373485        0.2414024942        0.0275234632
 H          3.4398453284       -0.5293863125        2.6707055110
 H          3.9759163235        1.0421390838        2.1125390173
 H          5.0412795186       -0.3431883086        1.9854870598
 C          0.6468374197        0.2681578407        0.7192314490
 C          0.2136818956       -0.9667600138        1.4527703016
 H          1.0177452864       -1.6962897005        1.3780013733
 H          0.0707766904       -0.7319244144        2.5085843453
 C         -0.1969746064        1.3170426364        0.6153463734
 C         -0.0919339848        2.2311578131       -0.5518794073
 O         -1.1585330040        2.1839886764       -1.3878010795
 C         -1.5982094948        1.1858009776        1.1683976514
 C         -1.7808594619       -0.8706365811       -0.2225210137
 C         -1.1138801716       -1.6288482449        0.9020378435
 C         -1.9737906035       -1.6116914499       -1.5072400073
 O          0.8558163883        2.9065922460       -0.8458774445
 C         -0.8370181597       -3.0663187289        0.4603751972
 C         -2.6849414694       -2.9504825715       -1.2800611563
 H         -0.9895508231       -1.7921055174       -1.9491113012
 H         -2.5422906047       -1.0082658198       -2.2148748465
 C         -2.1154924798       -3.7109105286       -0.0701689869
 H         -0.4670565479       -3.6447742693        1.3097742852
 H         -0.0652482713       -3.0762830112       -0.3104687326
 H         -2.5920967356       -3.5524168890       -2.1852523598
 H         -3.7479232761       -2.7603203356       -1.1239804565
 H         -2.8512770803       -3.7232817559        0.7366605393
 H         -1.9121334759       -4.7482213620       -0.3395625520
 C         -2.3854848996        2.5023689661        1.1981710950
 C         -2.0723148613        0.4160329995       -0.0365708709
 H         -1.6253787417        0.6575507093        2.1171219264
 C         -2.3799285392        1.5357140774       -0.9915566424
 C         -3.1680401478        2.5193433055       -0.1245908872
 H         -4.1842757028        2.1489865424        0.0116706814
 H         -3.2072091533        3.5072010565       -0.5795795936
 H         -1.7061563466        3.3531216816        1.2624639587
 H         -3.0547041839        2.5398588312        2.0567730012
 H         -2.8764720653        1.2598460936       -1.9225348295
 H         -1.8180348008       -1.6662716069        1.7413600510
48

Si                    3.35233000           0.29508000          -0.27275000         
C                     4.72406000          -0.99819000          -0.26919000         
H                     5.70576000          -0.51804000          -0.31693000         
H                     4.62262000          -1.66608000          -1.12957000         
H                     4.67732000          -1.60042000           0.64293000         
C                     3.50678000           1.30016000          -1.85565000         
H                     4.49939000           1.75509000          -1.92501000         
H                     2.76113000           2.10007000          -1.88170000         
H                     3.35895000           0.66184000          -2.73159000         
C                     3.63953000           1.44511000           1.19176000         
O                     1.24730000          -1.28499000           2.66693000         
H                     3.54477000           0.89615000           2.13328000         
H                     2.91084000           2.26114000           1.19289000         
H                     4.64194000           1.88068000           1.14606000         
C                     0.20448000          -1.01911000           2.07565000         
C                    -1.08468000          -1.83724000           2.27070000         
H                    -0.78162000          -2.80364000           2.69450000         
H                    -1.65438000          -1.34643000           3.07021000         
C                     0.07411000           0.20858000           1.25192000         
C                     0.74983000           0.31125000           0.08399000         
O                     0.15040000           0.96160000          -1.01692000         
C                    -1.26201000           0.86312000           1.36286000         
C                    -2.29088000          -0.98646000          -0.01595000         
C                    -2.03833000          -2.08739000           1.04913000         
C                    -2.74692000          -1.47674000          -1.37727000         
O                     1.86019000          -0.46621000          -0.17415000         
C                    -1.55048000          -3.36087000           0.31888000         
C                    -3.46704000          -2.81539000          -1.28496000         
H                    -1.87723000          -1.57896000          -2.03851000         
H                    -3.42596000          -0.74406000          -1.82978000         
C                    -2.56773000          -3.89709000          -0.69336000         
H                    -1.32695000          -4.16367000           1.03205000         
H                    -0.60696000          -3.14182000          -0.19975000         
H                    -3.81698000          -3.12817000          -2.27539000         
H                    -4.36314000          -2.70575000          -0.66018000         
H                    -3.19945000          -4.65690000          -0.21725000         
H                    -2.02563000          -4.41112000          -1.49642000         
C                    -1.24882000           2.38454000           1.13848000         
C                    -1.88932000           0.29495000           0.13572000         
H                    -1.80393000           0.64328000           2.28540000         
C                    -1.30189000           1.19056000          -0.93803000         
C                    -1.50491000           2.58081000          -0.35649000         
H                    -2.53383000           2.92377000          -0.51738000         
H                    -0.81844000           3.32205000          -0.77800000         
H                    -0.30080000           2.83851000           1.45007000         
H                    -2.04482000           2.87121000           1.71454000         
H                    -1.73242000           1.07912000          -1.93569000         
H                    -3.01969000          -2.32472000           1.48519000         
