  48
        -65.78350439
 Si         3.0110384157       -0.4795363566        0.1228507198
 C          2.7736594191       -0.6399511189       -1.7586893910
 H          3.6989219061       -0.9326364296       -2.2449236928
 H          2.4544057613        0.3016648053       -2.1918939825
 H          2.0248585471       -1.3900663714       -2.0023081998
 C          4.0306949599        1.0292625158        0.6647731202
 H          5.0537160575        0.9537900875        0.3104646043
 H          4.0622244525        1.1123163545        1.7481045559
 H          3.6075736191        1.9454199263        0.2694053066
 C          3.8314335366       -2.0736909509        0.7767095933
 O          1.5758125905       -0.6030216803        0.9375153831
 H          3.2611265569       -2.9601549257        0.5166343485
 H          3.9336055238       -2.0572450405        1.8571744757
 H          4.8244942642       -2.1905028126        0.3569379101
 C          0.4273911726       -0.0039606025        1.2211546632
 C         -0.5141126212       -0.8654915031        2.0293474205
 H          0.0652619480       -1.6787028592        2.4680840113
 H         -0.9658460155       -0.3092117706        2.8480204902
 C         -0.0379491303        1.1738645365        0.7481312267
 C          0.3806693641        1.7378914919       -0.5473296057
 O         -0.6035983280        1.8669126495       -1.4700673953
 C         -1.4638842251        1.5338493746        1.0966707225
 C         -2.1476730394       -0.6295055227       -0.0144336982
 C         -1.6083858960       -1.5036466374        1.1106225271
 C         -2.8420283533       -1.3434714044       -1.1446092100
 O          1.5096152762        1.9988840356       -0.8813238441
 C         -0.9543712653       -2.7702962850        0.5194641939
 C         -2.0729565584       -2.5465112355       -1.6759679078
 H         -3.0513719410       -0.6433156677       -1.9527016539
 H         -3.8068708334       -1.6969824996       -0.7614434698
 C         -1.7977140028       -3.4927433202       -0.5194394833
 H         -0.7267550447       -3.4537110680        1.3407232122
 H         -0.0076119306       -2.4781381569        0.0593262496
 H         -1.1300639245       -2.2159490207       -2.1162148338
 H         -2.6564911917       -3.0417185517       -2.4545297532
 H         -2.7423316006       -3.8193505183       -0.0775385446
 H         -1.2644190470       -4.3796277047       -0.8672931593
 C         -1.8266247233        3.0016364923        0.8196175567
 C         -2.0734681986        0.7031287462       -0.0021150306
 H         -1.7449259026        1.2490106145        2.1036394752
 C         -1.9970766667        1.6798780036       -1.1460325813
 C         -2.5144809261        2.9854672126       -0.5517829216
 H         -3.5991645895        2.9364436048       -0.4550641594
 H         -2.2490343363        3.8411456715       -1.1696464598
 H         -0.9272098394        3.6184377949        0.7981296492
 H         -2.4846971853        3.3951440478        1.5930985743
 H         -2.4686369837        1.3945641276       -2.0861725085
 H         -2.4437242846       -1.8082676412        1.7526705051
48

Si                    3.14122000          -0.01706000          -0.42546000         
C                     2.98676000          -0.03948000          -2.30031000         
H                     3.96473000           0.11829000          -2.76529000         
H                     2.31531000           0.75010000          -2.64919000         
H                     2.59520000          -1.00223000          -2.64180000         
C                     3.73663000           1.68796000           0.10913000         
H                     4.70425000           1.91727000          -0.34694000         
H                     3.84959000           1.72919000           1.19664000         
H                     3.02270000           2.45995000          -0.19284000         
C                     4.47425000          -1.26656000           0.04823000         
O                     0.70572000          -0.61430000           3.22575000         
H                     4.18770000          -2.27126000          -0.27648000         
H                     4.61589000          -1.28041000           1.13296000         
H                     5.42726000          -1.00831000          -0.42295000         
C                    -0.21693000          -0.44346000           2.43488000         
C                    -1.56589000          -1.17870000           2.56068000         
H                    -1.38704000          -2.06048000           3.19024000         
H                    -2.24385000          -0.54100000           3.14038000         
C                    -0.15905000           0.60455000           1.38548000         
C                     0.63161000           0.45112000           0.30040000         
O                     0.19466000           0.93850000          -0.95313000         
C                    -1.44265000           1.34262000           1.23087000         
C                    -2.47062000          -0.65392000           0.05428000         
C                    -2.27479000          -1.63635000           1.24089000         
C                    -3.02742000          -1.29300000          -1.20027000         
O                     1.70307000          -0.42130000           0.33121000         
C                    -1.51001000          -2.89223000           0.74167000         
C                    -2.21552000          -2.50337000          -1.63837000         
H                    -3.09053000          -0.57988000          -2.02885000         
H                    -4.06116000          -1.60056000          -0.99470000         
C                    -2.11548000          -3.51975000          -0.51012000         
H                    -1.49296000          -3.65317000           1.53203000         
H                    -0.46361000          -2.63263000           0.53459000         
H                    -1.21044000          -2.18881000          -1.94628000         
H                    -2.68837000          -2.96847000          -2.51080000         
H                    -3.11136000          -3.91654000          -0.27764000         
H                    -1.50008000          -4.36770000          -0.83131000         
C                    -1.28745000           2.80078000           0.76630000         
C                    -2.00177000           0.61467000           0.05343000         
H                    -2.08975000           1.32110000           2.11089000         
C                    -1.23481000           1.27542000          -1.07825000         
C                    -1.37306000           2.75536000          -0.75911000         
H                    -2.34605000           3.13638000          -1.09096000         
H                    -0.58454000           3.36309000          -1.21447000         
H                    -0.34400000           3.24382000           1.10622000         
H                    -2.09805000           3.42478000           1.16120000         
H                    -1.56320000           1.02898000          -2.08963000         
H                    -3.28312000          -1.96172000           1.53470000         
