  48
        -65.76993973
 Si        -2.8176675930       -1.5171801061        0.4322742258
 C         -2.2572614714       -3.1399379473       -0.3868890511
 H         -3.0847914212       -3.8313051465       -0.5091272319
 H         -1.4930578060       -3.6488953403        0.1940773871
 H         -1.8406275159       -2.9316765923       -1.3679472843
 C         -2.2021163947       -1.4018241540        2.2336902113
 H         -2.4928049373       -0.4617770989        2.6934643076
 H         -1.1176961068       -1.4654291538        2.2808824997
 H         -2.6046555560       -2.2063839136        2.8413707459
 C         -4.6947268193       -1.2353709222        0.3188513202
 O         -0.3894275093       -1.2217258528       -2.3466337169
 H         -5.2387409188       -2.0328023548        0.8141945945
 H         -5.0171604790       -1.2102117224       -0.7177180764
 H         -4.9927551654       -0.2971793297        0.7783393530
 C          0.2474480206       -0.2547083732       -1.9724572822
 C          1.7742743257       -0.2485305914       -2.1057078350
 H          2.0297432397       -1.2397952022       -2.4859636718
 H          2.0188059437        0.4682839671       -2.8926819269
 C         -0.3090026963        0.8914099245       -1.2823802362
 C         -1.2695271177        0.6062795239       -0.3435511458
 O         -2.1824723994       -0.3058748893       -0.5223839978
 C          0.6195399481        2.0340923508       -0.9128311177
 C          1.9041172885        0.3927678122        0.4189607395
 C          2.6607434010        0.0447034456       -0.8475766967
 C          2.1598029160       -0.4738264870        1.6109682229
 O         -1.2859289165        1.1826448298        0.8777499373
 C          3.5884605685       -1.1418004395       -0.5759167371
 C          3.6595023999       -0.5841387271        1.9056096141
 H          1.7564101836       -1.4695471682        1.4036436143
 H          1.6398955318       -0.0833092854        2.4868456736
 C          4.4785935167       -0.8584386653        0.6321322158
 H          4.2179412648       -1.3185965029       -1.4505715020
 H          2.9980382938       -2.0432432702       -0.4057817179
 H          3.8151796546       -1.3788785214        2.6369759966
 H          3.9942399010        0.3486117354        2.3627002365
 H          5.1007451717        0.0091440480        0.4019782515
 H          5.1487964525       -1.7044680482        0.7911064904
 C         -0.1089840512        3.3398671507       -0.5634818871
 C          1.0551340357        1.4168067697        0.3879999184
 H          1.3939550087        2.1848548876       -1.6575140299
 C         -0.0638702666        1.8450199224        1.2923435166
 C         -0.2159871319        3.3296363916        0.9695200663
 H          0.6002810088        3.8882559337        1.4279059162
 H         -1.1641115940        3.7230224218        1.3309818755
 H         -1.0972209719        3.3580798349       -1.0235303283
 H          0.4461342322        4.2074831785       -0.9178008781
 H          0.0455021291        1.6171313301        2.3531123873
 H          3.2955062832        0.9064511436       -1.0916594645
48

Si                   -2.54773000          -1.93898000           0.46123000         
C                    -2.51483000          -3.73044000          -0.11908000         
H                    -3.35981000          -4.28495000           0.29961000         
H                    -1.58896000          -4.21912000           0.19739000         
H                    -2.57641000          -3.77911000          -1.21014000         
C                    -2.34392000          -1.93148000           2.33286000         
H                    -2.50670000          -0.92686000           2.73420000         
H                    -1.33400000          -2.25051000           2.60725000         
H                    -3.06089000          -2.61059000           2.80291000         
C                    -4.23003000          -1.22369000           0.03093000         
O                    -0.41639000          -0.02419000          -3.07956000         
H                    -5.02717000          -1.82272000           0.48158000         
H                    -4.37996000          -1.21246000          -1.05242000         
H                    -4.32861000          -0.19931000           0.40158000         
C                     0.39883000           0.06127000          -2.16558000         
C                     1.79940000          -0.49482000          -2.27909000         
H                     1.72855000          -1.58645000          -2.26686000         
H                     2.25780000          -0.16616000          -3.21668000         
C                     0.21874000           0.73149000          -0.77259000         
C                    -1.10800000           0.25634000          -0.11624000         
O                    -1.29391000          -1.09311000          -0.25584000         
C                     0.55186000           2.28573000          -0.80464000         
C                     1.57595000           0.44477000           0.03476000         
C                     2.59098000           0.05958000          -1.07046000         
C                     1.57453000          -0.52597000           1.21091000         
O                    -1.87684000           0.96700000           0.52752000         
C                     3.60145000          -0.98931000          -0.57834000         
C                     2.96678000          -0.56384000           1.84769000         
H                     1.30031000          -1.53269000           0.87243000         
H                     0.83580000          -0.24632000           1.97175000         
C                     4.10349000          -0.68360000           0.82691000         
H                     4.44568000          -1.04218000          -1.27608000         
H                     3.14876000          -1.98966000          -0.57204000         
H                     3.01263000          -1.40161000           2.55360000         
H                     3.13132000           0.34143000           2.44463000         
H                     4.67785000           0.25071000           0.81028000         
H                     4.80090000          -1.46684000           1.14755000         
C                    -0.21721000           3.50089000          -0.25254000         
C                     1.39236000           1.89350000           0.39007000         
H                     1.12659000           2.58718000          -1.69217000         
C                     1.40037000           2.74880000           1.40739000         
C                     0.48884000           3.90615000           1.08302000         
H                     1.06069000           4.83132000           0.96665000         
H                    -0.25940000           4.05000000           1.86953000         
H                    -1.27312000           3.27204000          -0.08341000         
H                    -0.17941000           4.33893000          -0.95824000         
H                     1.79480000           2.54443000           2.39296000         
H                     3.14582000           0.95329000          -1.38769000         
