  48
        -65.77084400
 Si        -3.1393542810       -0.2394494762        0.3011136977
 C         -4.4920707925       -0.7827788893       -0.9080544044
 H         -4.0683976620       -1.4016469795       -1.6924157460
 H         -4.9703157466        0.0684212015       -1.3827594313
 H         -5.2617867411       -1.3565061466       -0.4030447576
 C         -2.2666718605       -1.7049912291        1.1498434818
 H         -1.6911992497       -2.2631408394        0.4163587546
 H         -2.9751155537       -2.3882233423        1.6069683132
 H         -1.5866630093       -1.3716005651        1.9303840814
 C         -3.7552966893        1.0142111434        1.5987149103
 O         -0.7001499608       -1.4349511899       -2.0301530352
 H         -2.9339424534        1.4088930945        2.1904327510
 H         -4.4690050373        0.5627675891        2.2804151611
 H         -4.2459363049        1.8587817295        1.1229647333
 C          0.2566193408       -0.7370887687       -1.7472630272
 C          1.6250409554       -1.4160423727       -1.5708854933
 H          1.3749573565       -2.4661231810       -1.4008996683
 H          2.1231256193       -1.3645831778       -2.5429298751
 C          0.1738995091        0.6717178183       -1.4149045135
 C         -0.8792620797        0.9868092510       -0.5909016352
 O         -2.0701566372        0.4825363601       -0.7540007708
 C          1.4411266859        1.4689680533       -1.1670569418
 C          1.9917041144       -0.1529232985        0.6274134835
 C          2.6419572757       -0.9560376363       -0.4795347924
 C          1.6957793155       -0.7642151721        1.9666774915
 O         -0.7397885146        1.7609142985        0.5062760274
 C          3.4474171896       -2.1595139216        0.0296365672
 C          2.6384871923       -1.8981367708        2.3530048178
 H          0.6777350204       -1.1685540645        1.9144012041
 H          1.6978794298        0.0107619647        2.7364508298
 C          2.7667785476       -2.8724109825        1.1898009850
 H          4.4241155470       -1.8075113858        0.3719691777
 H          3.6214361922       -2.8510008979       -0.7970682461
 H          2.2509484263       -2.4041068439        3.2395011190
 H          3.6240050389       -1.4965663638        2.5998463322
 H          3.3575744343       -3.7413096824        1.4858397006
 H          1.7760524055       -3.2215831488        0.8922233374
 C          1.2220238313        2.9887095347       -1.1781192287
 C          1.5570260908        1.0574121619        0.2750413497
 H          2.2355202436        1.1657287638       -1.8413139984
 C          0.6205599328        2.0353975176        0.9252338567
 C          1.0319339595        3.3669772912        0.2992039810
 H          1.9674344486        3.7056149221        0.7447677557
 H          0.2704172219        4.1303358339        0.4468491583
 H          0.3377901072        3.2412828073       -1.7637811177
 H          2.0764007064        3.5053059337       -1.6136445214
 H          0.5938878757        2.0328520661        2.0154438759
 H          3.3611267288       -0.2906799944       -0.9698947712
48

Si                   -3.17774000          -0.56474000           0.30129000         
C                    -4.53280000          -1.03276000          -0.91750000         
H                    -4.17791000          -1.79427000          -1.61729000         
H                    -4.85072000          -0.15696000          -1.49121000         
H                    -5.40377000          -1.42866000          -0.38666000         
C                    -2.83849000          -2.05030000           1.41632000         
H                    -2.38771000          -2.85906000           0.83329000         
H                    -3.76124000          -2.41685000           1.87236000         
H                    -2.13984000          -1.77083000           2.21067000         
C                    -3.84485000           0.82395000           1.37416000         
O                    -0.17050000          -0.62622000          -2.94490000         
H                    -3.14403000           1.07905000           2.17452000         
H                    -4.78621000           0.52174000           1.84359000         
H                    -4.03488000           1.72224000           0.77943000         
C                     0.51055000          -0.62834000          -1.92462000         
C                     1.48220000          -1.74983000          -1.59765000         
H                     0.94156000          -2.53360000          -1.05980000         
H                     1.93050000          -2.15362000          -2.50908000         
C                     0.57849000           0.44358000          -0.77321000         
C                    -0.82757000           0.69444000          -0.13096000         
O                    -1.75774000          -0.22755000          -0.50888000         
C                     1.47292000           1.71326000          -1.09513000         
C                     1.73600000          -0.11158000           0.21716000         
C                     2.53434000          -1.04627000          -0.71977000         
C                     1.20574000          -0.77246000           1.49089000         
O                    -1.06720000           1.57131000           0.69684000         
C                     3.47259000          -1.99209000           0.02851000         
C                     2.29346000          -1.57221000           2.19330000         
H                     0.38372000          -1.45627000           1.24523000         
H                     0.79580000          -0.03160000           2.18758000         
C                     2.85066000          -2.63914000           1.25906000         
H                     4.35122000          -1.42038000           0.35562000         
H                     3.84374000          -2.76900000          -0.65026000         
H                     1.87730000          -2.05072000           3.08708000         
H                     3.09973000          -0.90729000           2.52515000         
H                     3.60868000          -3.23034000           1.78534000         
H                     2.05583000          -3.33353000           0.96192000         
C                     1.14786000           3.20511000          -0.89605000         
C                     2.06815000           1.34755000           0.25449000         
H                     2.13901000           1.57871000          -1.95784000         
C                     2.29506000           2.35574000           1.09022000         
C                     1.82170000           3.63811000           0.44876000         
H                     2.65638000           4.32270000           0.27418000         
H                     1.08322000           4.13937000           1.08392000         
H                     0.06748000           3.38051000          -0.87304000         
H                     1.55685000           3.80280000          -1.71910000         
H                     2.51060000           2.25070000           2.14465000         
H                     3.16728000          -0.45147000          -1.39463000         
