  48
        -65.77230281
 Si        -3.0366243098       -0.3565049468        0.0632978104
 C         -4.0002576379       -1.5956200248       -0.9982067466
 H         -4.7932386288       -2.0662200333       -0.4270105420
 H         -3.3448870202       -2.3747464358       -1.3741338721
 H         -4.4537092363       -1.1118897872       -1.8573811373
 C         -2.4004185621       -1.1305901304        1.6858469556
 H         -1.8109570672       -2.0208390530        1.4809130609
 H         -3.2180422817       -1.4232453754        2.3367610397
 H         -1.7743878769       -0.4345569326        2.2378668493
 C         -4.0236125119        1.2338851669        0.4188970513
 O          0.1531385508       -1.5224352632       -2.4300770874
 H         -4.9294302596        1.0206687341        0.9773081435
 H         -4.3163630852        1.7241748628       -0.5057539926
 H         -3.4376202719        1.9441633062        0.9949217485
 C          0.8705917581       -0.6663912180       -1.9559661280
 C          2.3435921416       -0.9498920678       -1.6297153490
 H          2.5795378583       -1.9193613171       -2.0744933518
 H          2.9921057145       -0.2157392285       -2.1033014662
 C          0.4372524858        0.6384896448       -1.4849837829
 C         -0.7010646847        0.7103432101       -0.7305507697
 O         -1.7517924794       -0.0360162886       -0.9504719641
 C          1.5076228334        1.6156516546       -1.0525026939
 C          2.0661189611        0.0133066727        0.8100661245
 C          2.6325178702       -1.0602388614       -0.1073805634
 C          2.1357187358       -0.3020479349        2.2812786102
 O         -0.7963749815        1.4918417937        0.3739138883
 C          2.0349590330       -2.4158046428        0.3296539948
 C          1.5380804208       -1.6585570071        2.6389507330
 H          1.6518754306        0.4890835710        2.8548718969
 H          3.1949048739       -0.3084772180        2.5638843328
 C          2.2243985052       -2.7285527078        1.8062126544
 H          2.4948313341       -3.2048462683       -0.2686823161
 H          0.9672972135       -2.4081008862        0.0970850412
 H          0.4683693025       -1.6560072654        2.4236153358
 H          1.6700488297       -1.8511503758        3.7057480200
 H          3.2902523350       -2.7555522398        2.0470456460
 H          1.8048356299       -3.7119182726        2.0277395573
 C          1.0459839127        3.0831504022       -1.0595443386
 C          1.5635098054        1.1749470868        0.3860691693
 H          2.4293283240        1.5070666222       -1.6098133816
 C          0.4424124354        1.9963170757        0.9579184969
 C          0.6760003993        3.3922069095        0.3974771321
 H          1.5019304228        3.8657617425        0.9286333921
 H         -0.2106390659        4.0171388086        0.4863208691
 H          0.1823669733        3.2019027924       -1.7144260271
 H          1.8359249516        3.7413189178       -1.4190956232
 H          0.2820639181        1.9548131646        2.0350276252
 H          3.7221901501       -1.1068841657        0.0215467377
48

Si                   -3.13290000          -0.78733000           0.11841000         
C                    -4.01152000          -2.03174000          -0.98655000         
H                    -5.00537000          -2.26006000          -0.59009000         
H                    -3.44110000          -2.96253000          -1.04897000         
H                    -4.12879000          -1.62859000          -1.99674000         
C                    -3.07687000          -1.48631000           1.86641000         
H                    -2.54768000          -2.44367000           1.87752000         
H                    -4.08757000          -1.64455000           2.25290000         
H                    -2.55399000          -0.79756000           2.53682000         
C                    -4.17527000           0.77999000           0.13744000         
O                     0.12917000          -0.76416000          -2.73985000         
H                    -5.21531000           0.54335000           0.38105000         
H                    -4.15323000           1.27002000          -0.84014000         
H                    -3.81045000           1.48824000           0.88698000         
C                     0.85824000          -0.51656000          -1.78469000         
C                     2.29517000          -1.00923000          -1.71109000         
H                     2.40032000          -1.98790000          -2.18800000         
H                     2.93432000          -0.28849000          -2.23079000         
C                     0.64956000           0.48095000          -0.57956000         
C                    -0.80331000           0.53711000          -0.05621000         
O                    -1.57317000          -0.52655000          -0.43156000         
C                     1.36620000           1.85593000          -0.94094000         
C                     1.78405000           0.09360000           0.48962000         
C                     2.61181000          -1.03021000          -0.19909000         
C                     1.47072000          -0.16226000           1.97460000         
O                    -1.21786000           1.42036000           0.69149000         
C                     2.24723000          -2.44579000           0.29903000         
C                     1.02739000          -1.58390000           2.26182000         
H                     0.70187000           0.52885000           2.34020000         
H                     2.37041000           0.03849000           2.57278000         
C                     2.09943000          -2.55488000           1.80345000         
H                     3.01312000          -3.15376000          -0.04246000         
H                     1.30365000          -2.77700000          -0.15585000         
H                     0.08007000          -1.80101000           1.75652000         
H                     0.85647000          -1.70553000           3.33725000         
H                     3.05444000          -2.34286000           2.29851000         
H                     1.81402000          -3.57788000           2.07300000         
C                     0.97852000           3.32294000          -0.68076000         
C                     2.17646000           1.54152000           0.28792000         
H                     1.93755000           1.81714000          -1.87962000         
C                     2.56176000           2.59937000           1.00430000         
C                     2.01246000           3.85205000           0.36557000         
H                     2.81406000           4.42201000          -0.11315000         
H                     1.50773000           4.48970000           1.09825000         
H                    -0.03923000           3.40613000          -0.28811000         
H                     1.02755000           3.91844000          -1.59924000         
H                     2.94688000           2.55801000           2.01425000         
H                     3.68331000          -0.86970000          -0.02740000         
