  48
        -65.77110018
 Si        -3.0277577857       -0.4497265592        0.5195417200
 C         -4.5988547407       -0.3304637722       -0.5358355100
 H         -4.3939140460       -0.6392561055       -1.5558482777
 H         -4.9876157003        0.6827871609       -0.5709767818
 H         -5.3812589496       -0.9713564583       -0.1434000994
 C         -2.3168012032       -2.2151632076        0.5683405827
 H         -1.6020117676       -2.3487154697        1.3764468064
 H         -1.8098216574       -2.4307587151       -0.3681400193
 H         -3.0980065751       -2.9564418658        0.7031963687
 C         -3.2820209010        0.2400006987        2.2786497439
 O         -0.6093812381       -0.9284686911       -2.2382874069
 H         -2.3543952667        0.2437291322        2.8441662351
 H         -4.0057199348       -0.3481225958        2.8341266268
 H         -3.6444250722        1.2638185413        2.2483645294
 C          0.2951455435       -0.1799119725       -1.9152576694
 C          1.7535747032       -0.5700590758       -2.1725780062
 H          1.7101635611       -1.5235845200       -2.7018965414
 H          2.1639640472        0.1623615013       -2.8701191131
 C          0.1390458912        1.0495526043       -1.1668708550
 C         -0.8199695183        1.0278876504       -0.1823915201
 O         -1.9983985126        0.5075334269       -0.3721674533
 C          1.3864804459        1.8349548418       -0.8100196811
 C          2.2120693047       -0.1848463079        0.3733158036
 C          2.7249296044       -0.7265345057       -0.9500454309
 C          2.3480791213       -1.0886661538        1.5599970908
 O         -0.5883682747        1.4735805968        1.0706345858
 C          3.0798468808       -2.2081461755       -0.7683844887
 C          1.6768551251       -2.4457046008        1.3109015839
 H          1.9168058937       -0.6201175616        2.4452671854
 H          3.4125864834       -1.2434935264        1.7605871352
 C          1.9068019261       -2.9395658210       -0.1243522964
 H          3.9686326942       -2.3075596697       -0.1422455344
 H          3.3167622748       -2.6524404671       -1.7366162687
 H          0.6063364782       -2.3508047623        1.4946417246
 H          2.0709844345       -3.1659716047        2.0307550569
 H          2.0883532386       -4.0153346616       -0.1264529156
 H          1.0143173585       -2.7549177911       -0.7239110760
 C          1.1011371653        3.2736968332       -0.3544195009
 C          1.6880334066        1.0371756386        0.4272204636
 H          2.1366765325        1.8005675893       -1.5922051900
 C          0.7976400786        1.7203823317        1.4260660399
 C          1.0755075514        3.2009265345        1.1802320984
 H          2.0433271311        3.4656087371        1.6065188619
 H          0.3067910624        3.8320026842        1.6222003731
 H          0.1411876692        3.6122521051       -0.7452968831
 H          1.8711012791        3.9586061872       -0.7073198593
 H          0.8889042312        1.4072161630        2.4663651594
 H          3.6439821964       -0.1829548801       -1.2051279397
48

Si                   -3.04335000          -0.86068000           0.48192000         
C                    -4.45271000          -0.51536000          -0.71749000         
H                    -4.26097000          -0.98551000          -1.68606000         
H                    -4.57209000           0.56101000          -0.87221000         
H                    -5.39386000          -0.91086000          -0.32300000         
C                    -3.00451000          -2.72033000           0.81650000         
H                    -2.25188000          -2.94880000           1.57692000         
H                    -2.74783000          -3.26311000          -0.09775000         
H                    -3.97748000          -3.06992000           1.17169000         
C                    -3.46195000          -0.01301000           2.10660000         
O                    -0.44439000           0.07156000          -2.77777000         
H                    -2.67926000          -0.18798000           2.85061000         
H                    -4.40375000          -0.39981000           2.50725000         
H                    -3.57534000           1.06633000           1.96676000         
C                     0.46924000          -0.01466000          -1.96141000         
C                     1.76679000          -0.71490000          -2.29662000         
H                     1.55669000          -1.73015000          -2.64227000         
H                     2.25078000          -0.16119000          -3.10902000         
C                     0.58561000           0.64575000          -0.55383000         
C                    -0.75163000           0.57169000           0.24283000         
O                    -1.57490000          -0.42802000          -0.18373000         
C                     1.31652000           2.05811000          -0.64422000         
C                     1.88726000          -0.00505000           0.12505000         
C                     2.66863000          -0.66882000          -1.03897000         
C                     1.75169000          -0.88774000           1.36860000         
O                    -1.02442000           1.28930000           1.20375000         
C                     3.15501000          -2.07596000          -0.65935000         
C                     1.24425000          -2.27976000           1.01501000         
H                     1.07834000          -0.43818000           2.10826000         
H                     2.72670000          -0.97705000           1.86666000         
C                     2.03895000          -2.95516000          -0.10044000         
H                     3.95092000          -1.99375000           0.09186000         
H                     3.60698000          -2.56753000          -1.52951000         
H                     0.19329000          -2.22793000           0.71557000         
H                     1.26870000          -2.90905000           1.91297000         
H                     2.46747000          -3.89463000           0.26819000         
H                     1.34805000          -3.24079000          -0.90303000         
C                     0.96252000           3.41540000          -0.00809000         
C                     2.16981000           1.43850000           0.43648000         
H                     1.83703000           2.22221000          -1.59858000         
C                     2.55916000           2.25231000           1.41317000         
C                     1.96972000           3.62043000           1.17209000         
H                     2.75236000           4.33741000           0.90754000         
H                     1.43752000           3.98530000           2.05652000         
H                    -0.06903000           3.43234000           0.35637000         
H                     1.06334000           4.23012000          -0.73385000         
H                     3.01203000           1.93794000           2.34321000         
H                     3.56116000          -0.07443000          -1.27788000         
