  48
        -65.77402268
 Si        -2.9694148167       -0.7981673424        0.1313270627
 C         -3.3451030186       -0.3841836236       -1.6924042915
 H         -3.0774605643       -1.2024840143       -2.3504436756
 H         -2.7814150359        0.4871100564       -2.0137769215
 H         -4.3994307770       -0.1709962801       -1.8348559468
 C         -2.7955479998       -2.5979775900        0.7201095692
 H         -2.1003837826       -3.1688424947        0.1178665080
 H         -3.7615631175       -3.0897225169        0.6828491670
 H         -2.4521221254       -2.6279352201        1.7499522517
 C         -4.4803352035       -0.1182783864        1.0992855295
 O         -0.8803889918       -1.4696219634       -1.0083659160
 H         -5.3794982984       -0.6729136083        0.8518724921
 H         -4.6733567834        0.9282470453        0.8805890368
 H         -4.3329306564       -0.2005171296        2.1716058545
 C         -0.0719184658       -0.5672710728       -1.2252293919
 C          1.2561190077       -0.9018166047       -1.8909424312
 H          1.2342821555       -1.9769327559       -2.0735569146
 H          1.2640718793       -0.4073644538       -2.8644628794
 C         -0.2333884289        0.7813502824       -0.7832791123
 C         -0.8205228893        0.8859210912        0.4673399139
 O         -1.8236386818        0.1945935154        0.8887583141
 C          0.8907595377        1.7675216378       -1.0488072312
 C          2.3869713141        0.2145614362        0.1736298979
 C          2.5787766624       -0.5463526223       -1.1239035342
 C          2.8769610403       -0.4587106636        1.4175160423
 O         -0.3104298200        1.6736948645        1.4282045165
 C          3.3890412856       -1.8163119780       -0.8502233049
 C          2.2798454336       -1.8686260951        1.4370509662
 H          2.5564734693        0.0945539898        2.3005970867
 H          3.9682815207       -0.5142528575        1.4335267134
 C          2.7466574160       -2.6929567286        0.2267898367
 H          4.3920722604       -1.5248515347       -0.5318017384
 H          3.5006334710       -2.3898604203       -1.7726472528
 H          1.1918567973       -1.7730180819        1.4201967567
 H          2.5513378124       -2.3704524627        2.3668702167
 H          3.4751380929       -3.4440830406        0.5382376873
 H          1.8926879217       -3.2250364087       -0.1933950524
 C          0.4899152910        3.2337622810       -0.8336579517
 C          1.6997341566        1.3539192999        0.1500658264
 H          1.3506266281        1.6067343297       -2.0187602412
 C          1.0393275750        2.1647565935        1.2277400153
 C          0.9351708255        3.5536561033        0.6019313400
 H          1.9140688724        4.0329501544        0.6157507185
 H          0.2242366361        4.1800659771        1.1370156491
 H         -0.5881598994        3.3549237978       -0.9444426540
 H          0.9794899717        3.8854169825       -1.5562482264
 H          1.5038788343        2.1460361237        2.2136446647
 H          3.1727442769        0.0869915774       -1.7946772823
48

Si                   -3.06425000          -1.09243000           0.25359000         
C                    -3.76936000          -0.53688000          -1.40759000         
H                    -3.44216000          -1.21442000          -2.20171000         
H                    -3.41391000           0.46982000          -1.64845000         
H                    -4.86186000          -0.52522000          -1.38536000         
C                    -3.47178000          -2.91568000           0.48356000         
H                    -2.91886000          -3.52549000          -0.23662000         
H                    -4.54150000          -3.09079000           0.33568000         
H                    -3.20464000          -3.24458000           1.49206000         
C                    -3.94327000          -0.13255000           1.60508000         
O                    -0.58259000          -0.68889000          -2.56001000         
H                    -5.01365000          -0.36229000           1.59491000         
H                    -3.83660000           0.94628000           1.45957000         
H                    -3.54890000          -0.39065000           2.59178000         
C                     0.37971000          -0.47556000          -1.82682000         
C                     1.73741000          -1.06669000          -2.11333000         
H                     1.65877000          -2.15617000          -2.12165000         
H                     2.05907000          -0.72804000          -3.10430000         
C                     0.47034000           0.46947000          -0.58804000         
C                    -0.80853000           0.35043000           0.29398000         
O                    -1.40265000          -0.87812000           0.20913000         
C                     0.92593000           1.93321000          -1.02782000         
C                     1.90445000           0.20096000           0.06691000         
C                     2.71368000          -0.52637000          -1.04109000         
C                     2.02785000          -0.43064000           1.45369000         
O                    -1.26450000           1.24543000           1.00211000         
C                     3.57502000          -1.65421000          -0.46032000         
C                     1.84068000          -1.94066000           1.39532000         
H                     1.29975000          -0.00240000           2.15289000         
H                     3.01829000          -0.20994000           1.87492000         
C                     2.77709000          -2.63007000           0.40339000         
H                     4.37611000          -1.21677000           0.14889000         
H                     4.07129000          -2.20481000          -1.26897000         
H                     0.80435000          -2.17413000           1.12830000         
H                     1.99910000          -2.36355000           2.39487000         
H                     3.47527000          -3.28091000           0.94315000         
H                     2.18468000          -3.29972000          -0.23193000         
C                     0.39125000           3.32971000          -0.65851000         
C                     1.93177000           1.70369000           0.07649000         
H                     1.35686000           1.96630000          -2.03896000         
C                     2.24514000           2.76548000           0.81112000         
C                     1.43082000           3.94414000           0.33684000         
H                     2.07053000           4.67860000          -0.16156000         
H                     0.91050000           4.43102000           1.16769000         
H                    -0.59894000           3.27654000          -0.19705000         
H                     0.30008000           3.96485000          -1.54685000         
H                     2.82160000           2.74593000           1.72528000         
H                     3.39485000           0.18398000          -1.52985000         
