  48
        -65.77128854
 Si        -2.7088460755       -1.6538190583        0.5367494861
 C         -1.3692954006       -2.2490082229        1.7560535182
 H         -0.5312341188       -2.6810621660        1.2149090740
 H         -1.7481555137       -3.0069885037        2.4339685452
 H         -0.9899331574       -1.4285866635        2.3597865678
 C         -4.0969541777       -0.7311232074        1.4600730797
 H         -4.8254620802       -0.3267229575        0.7625168233
 H         -3.7039295378        0.0990127752        2.0400796905
 H         -4.6264943226       -1.3904817567        2.1401936766
 C         -3.3535951108       -3.0404823284       -0.5812414879
 O         -0.0715685017       -1.3600486416       -2.3258243879
 H         -4.1906233344       -2.7053794555       -1.1855328507
 H         -3.6864909401       -3.8930829736        0.0008746687
 H         -2.5753150758       -3.3738684294       -1.2603661924
 C          0.4396785806       -0.3288480244       -1.9338626650
 C          1.9747634027       -0.2340684237       -1.9209295091
 H          2.2994609092       -1.2773985880       -1.9258812734
 H          2.2658476959        0.1899043570       -2.8859526261
 C         -0.2933081465        0.7726999365       -1.3353613823
 C         -1.2445549649        0.3862378706       -0.4256849114
 O         -2.0072064714       -0.6566786689       -0.6030957809
 C          0.4248460866        2.0670848819       -0.9993310369
 C          1.9234510997        0.7271562191        0.4532830441
 C          2.7477433459        0.5308263666       -0.8020122984
 C          2.1314605179       -0.1349145864        1.6649424759
 O         -1.3884420041        0.9855552866        0.7768694679
 C          4.1027443700       -0.1427859208       -0.5438100553
 C          3.5534109789       -0.6644951367        1.8121584570
 H          1.4545356264       -0.9921682059        1.5658579295
 H          1.8347519009        0.4103175996        2.5637404756
 C          4.0161620768       -1.2582985850        0.4884717800
 H          4.8032267863        0.6104577804       -0.1736517192
 H          4.5003053711       -0.5226124324       -1.4869944160
 H          3.5786625969       -1.4172011583        2.6026325675
 H          4.2258753302        0.1469776069        2.0998950227
 H          4.9943124856       -1.7288186380        0.6049807059
 H          3.3091071235       -2.0233418816        0.1616688934
 C         -0.5208870745        3.2469047668       -0.7314160950
 C          0.9079952696        1.5842743233        0.3412996772
 H          1.1738382831        2.3061129565       -1.7472322196
 C         -0.3019402150        1.8522155121        1.1901164631
 C         -0.6830758931        3.2782656244        0.7963358760
 H          0.0125718757        3.9816656774        1.2542007580
 H         -1.6958732395        3.5234915499        1.1104628819
 H         -1.4802570420        3.0847975852       -1.2233563197
 H         -0.1008539454        4.1796035333       -1.1056997058
 H         -0.1903897090        1.6890494097        2.2627157683
 H          2.9715970139        1.5304464079       -1.1906197828
48

Si                   -2.54997000          -1.97226000           0.49767000         
C                    -1.64981000          -2.77144000           1.94893000         
H                    -0.80741000          -3.36938000           1.58885000         
H                    -2.32310000          -3.42131000           2.51423000         
H                    -1.26045000          -2.00259000           2.62321000         
C                    -4.01067000          -0.99687000           1.17161000         
H                    -4.52852000          -0.46803000           0.36634000         
H                    -3.69097000          -0.26334000           1.91729000         
H                    -4.72515000          -1.66951000           1.65581000         
C                    -3.24825000          -3.33692000          -0.59294000         
O                    -0.24216000          -0.34243000          -2.98941000         
H                    -3.90361000          -2.91419000          -1.36030000         
H                    -3.83253000          -4.04222000           0.00566000         
H                    -2.44356000          -3.88638000          -1.08884000         
C                     0.50096000          -0.11271000          -2.04059000         
C                     1.93094000          -0.62946000          -1.98181000         
H                     1.92043000          -1.63951000          -1.56334000         
H                     2.38282000          -0.63460000          -2.97722000         
C                     0.21486000           0.72104000          -0.73871000         
C                    -1.04825000           0.20424000           0.02505000         
O                    -1.45218000          -1.04300000          -0.36113000         
C                     0.36418000           2.29636000          -0.89931000         
C                     1.61657000           0.68387000           0.07042000         
C                     2.62911000           0.38666000          -1.05791000         
C                     1.63469000          -0.31034000           1.23223000         
O                    -1.58947000           0.81065000           0.94932000         
C                     3.99616000          -0.05064000          -0.53414000         
C                     3.05266000          -0.54943000           1.73017000         
H                     1.21838000          -1.27333000           0.90995000         
H                     1.01086000           0.03365000           2.06574000         
C                     3.93180000          -1.06752000           0.59803000         
H                     4.52217000           0.83761000          -0.15915000         
H                     4.60494000          -0.44738000          -1.35501000         
H                     3.03625000          -1.28291000           2.54425000         
H                     3.47332000           0.37834000           2.13578000         
H                     4.94253000          -1.25935000           0.97593000         
H                     3.54448000          -2.02347000           0.22633000         
C                    -0.58712000           3.41874000          -0.44229000         
C                     1.22372000           2.10196000           0.34025000         
H                     0.90140000           2.60015000          -1.80758000         
C                     1.05086000           2.98037000           1.32221000         
C                    -0.04633000           3.94092000           0.93077000         
H                     0.33517000           4.96224000           0.84642000         
H                    -0.85335000           3.92804000           1.67160000         
H                    -1.61831000           3.06191000          -0.35492000         
H                    -0.58985000           4.24032000          -1.16827000         
H                     1.41861000           2.86152000           2.33215000         
H                     2.80475000           1.29273000          -1.65626000         
