  48
        -65.77106749
 Si        -3.0289175222       -0.4220557604        0.5665082063
 C         -4.6995523600       -0.0133798605       -0.2361246801
 H         -4.6647017852       -0.2025786212       -1.3043139682
 H         -4.9748035690        1.0276726835       -0.0954905356
 H         -5.4917604798       -0.6240581093        0.1839746597
 C         -2.5274041236       -2.2419027908        0.3162367975
 H         -2.0611751988       -2.3614075959       -0.6579424989
 H         -3.3909982289       -2.8982293644        0.3556532873
 H         -1.8249342549       -2.5872963492        1.0706685559
 C         -2.9846283625        0.0543745126        2.4119932665
 O         -0.6640581706       -0.9424695099       -2.2009623279
 H         -3.7379430061       -0.4851202970        2.9774764964
 H         -3.1667696199        1.1166437526        2.5476772277
 H         -2.0185111925       -0.1659911801        2.8579375499
 C          0.2643905514       -0.2230055444       -1.8798630483
 C          1.7049732247       -0.6878804964       -2.1156450831
 H          1.6145235346       -1.7006174822       -2.5113804680
 H          2.1067710698       -0.0655573945       -2.9185823135
 C          0.1367474889        1.0290626487       -1.1619798283
 C         -0.8255392891        1.0454534731       -0.1807027963
 O         -2.0066158669        0.5223948092       -0.3482833231
 C          1.3963306968        1.8087400635       -0.8284239492
 C          2.1795443726       -0.1922940634        0.3955472094
 C          2.7236730589       -0.7026211884       -0.9244330748
 C          2.1355179954       -1.1743087353        1.5241314959
 O         -0.5955016897        1.5347141424        1.0558180166
 C          3.2995502856       -2.1078238697       -0.7279431924
 C          1.4568870497       -2.4380953629        0.9904829725
 H          1.5675710090       -0.7655083238        2.3608983712
 H          3.1399993094       -1.4115088727        1.8837300935
 C          2.2812911712       -3.0835322966       -0.1328015729
 H          4.1617369184       -2.0334671301       -0.0614878059
 H          3.6647824078       -2.4941924033       -1.6815045466
 H          0.4769270755       -2.1507689852        0.6045659547
 H          1.2998076929       -3.1495252753        1.8029549943
 H          2.8206004725       -3.9541028634        0.2459230707
 H          1.6053729342       -3.4356964600       -0.9125921816
 C          1.1331046169        3.2629015382       -0.4118847083
 C          1.6767323669        1.0386803887        0.4323242962
 H          2.1394120469        1.7361246592       -1.6155606520
 C          0.7928349854        1.7608778301        1.4082344104
 C          1.1026284423        3.2291574466        1.1243054897
 H          2.0751760068        3.4841970715        1.5455943025
 H          0.3467653899        3.8873238923        1.5484579186
 H          0.1798534504        3.6072263017       -0.8138449836
 H          1.9153471837        3.9257234413       -0.7796411550
 H          0.8796153565        1.4727055586        2.4562823753
 H          3.5566142150       -0.0475814667       -1.2099083433
48

Si                   -2.95473000          -0.88522000           0.55334000         
C                    -4.37629000          -0.14935000          -0.42463000         
H                    -4.32887000          -0.45946000          -1.47253000         
H                    -4.35005000           0.94366000          -0.38802000         
H                    -5.33538000          -0.48041000          -0.01409000         
C                    -3.14355000          -2.76302000           0.54714000         
H                    -3.05361000          -3.15108000          -0.47150000         
H                    -4.11881000          -3.05408000           0.94712000         
H                    -2.36384000          -3.22227000           1.16197000         
C                    -3.08657000          -0.31264000           2.34050000         
O                    -0.34535000           0.26547000          -2.99094000         
H                    -3.96373000          -0.75475000           2.82188000         
H                    -3.18282000           0.77572000           2.39524000         
H                    -2.19711000          -0.60843000           2.90430000         
C                     0.46530000           0.05828000          -2.09270000         
C                     1.59014000          -0.94234000          -2.23603000         
H                     1.15738000          -1.94497000          -2.20538000         
H                     2.10116000          -0.79580000          -3.19244000         
C                     0.54008000           0.72496000          -0.68479000         
C                    -0.87486000           0.72781000          -0.03500000         
O                    -1.47027000          -0.50071000          -0.11290000         
C                     1.37931000           2.07798000          -0.69048000         
C                     1.73925000          -0.02224000           0.08866000         
C                     2.55922000          -0.66345000          -1.06233000         
C                     1.46475000          -0.96047000           1.26656000         
O                    -1.39819000           1.68060000           0.53668000         
C                     3.28178000          -1.92934000          -0.59268000         
C                     1.17208000          -2.37484000           0.78338000         
H                     0.63112000          -0.59676000           1.87783000         
H                     2.33936000          -0.99113000           1.93061000         
C                     2.34817000          -2.97868000           0.01601000         
H                     4.02550000          -1.64770000           0.16422000         
H                     3.84205000          -2.37879000          -1.42134000         
H                     0.29154000          -2.37154000           0.13312000         
H                     0.92292000          -3.01830000           1.63499000         
H                     2.93239000          -3.62515000           0.68201000         
H                     1.95730000          -3.63738000          -0.76937000         
C                     1.08828000           3.47047000          -0.09769000         
C                     2.04922000           1.39322000           0.48198000         
H                     2.01198000           2.18842000          -1.58303000         
C                     2.37689000           2.16943000           1.50882000         
C                     1.92330000           3.57855000           1.22116000         
H                     2.78149000           4.24516000           1.09509000         
H                     1.29313000           3.96272000           2.02997000         
H                     0.02335000           3.61404000           0.10338000         
H                     1.39330000           4.26108000          -0.79314000         
H                     2.71104000           1.81943000           2.47556000         
H                     3.32247000           0.04464000          -1.41431000         
