  48
        -65.77406084
 Si        -3.0060728162       -0.5005012756        0.1269475891
 C         -2.9927839999       -2.2632791422        0.8408028062
 H         -2.3671630038       -2.9393019225        0.2720507865
 H         -4.0016287555       -2.6614254087        0.8514179929
 H         -2.6331586835       -2.2542784736        1.8655301925
 C         -4.4463290281        0.3793068703        1.0395104408
 H         -4.5490618789        1.4191548731        0.7420509110
 H         -4.3005129592        0.3656241273        2.1151274997
 H         -5.3916221338       -0.1121105054        0.8338184518
 C         -3.3457976088       -0.1826258968       -1.7228459512
 O         -0.9895655572       -1.4463297188       -0.9616486646
 H         -2.7137675258        0.6173972137       -2.0982201553
 H         -4.3795628873        0.1042654119       -1.8856926234
 H         -3.1441561638       -1.0620188747       -2.3231311420
 C         -0.0985625971       -0.6407834056       -1.2288263839
 C          1.1998203858       -1.1308276621       -1.8531399964
 H          1.0596846341       -2.1939157664       -2.0544711684
 H          1.3140934883       -0.6317398092       -2.8166839039
 C         -0.1274086164        0.7430780311       -0.8769105285
 C         -0.7053601050        0.9935363731        0.3565409833
 O         -1.7729429347        0.4349425304        0.8158539366
 C          1.0957130776        1.5860686432       -1.1915817898
 C          2.4046550209       -0.0214202535        0.1829709795
 C          2.5135807468       -0.9517003985       -1.0119244205
 C          2.8685007628       -0.5781744579        1.4933435929
 O         -0.1242050100        1.7952093513        1.2647719907
 C          2.9985770323       -2.3228840000       -0.5266130791
 C          2.0915533807       -1.8647231813        1.7961719403
 H          2.7079333768        0.1438665083        2.2939923431
 H          3.9394860203       -0.7929885086        1.4527449807
 C          2.1086428726       -2.8360629294        0.6027820661
 H          4.0313352259       -2.2473103898       -0.1815830579
 H          2.9901623395       -3.0321388708       -1.3566004501
 H          1.0607478755       -1.5958162574        2.0339916501
 H          2.5212439890       -2.3355292521        2.6820184777
 H          2.4604226395       -3.8192176749        0.9195148061
 H          1.0945614305       -2.9592148448        0.2210607422
 C          0.8449774704        3.0975891505       -1.0904681992
 C          1.8491088329        1.1804684185        0.0453213603
 H          1.5509215432        1.3138139203       -2.1380025343
 C          1.2697828047        2.1360605155        1.0495058653
 C          1.3103133006        3.4777512853        0.3233451266
 H          2.3324663915        3.8563866735        0.3162637806
 H          0.6624218588        4.2101143210        0.8008705765
 H         -0.2146512610        3.3174160496       -1.2250432701
 H          1.4022875021        3.6409083693       -1.8524905382
 H          1.7197571988        2.1456334945        2.0421272994
 H          3.2701314716       -0.5432202170       -1.6938910496
48

Si                   -3.24900000          -0.16068000           0.10330000         
C                    -3.03127000          -1.96550000           0.60722000         
H                    -2.17639000          -2.42807000           0.10806000         
H                    -3.92528000          -2.54068000           0.34940000         
H                    -2.87454000          -2.04590000           1.68729000         
C                    -4.68534000           0.51079000           1.10224000         
H                    -4.84603000           1.57308000           0.90333000         
H                    -4.51495000           0.37481000           2.17400000         
H                    -5.60146000          -0.02848000           0.83746000         
C                    -3.71621000          -0.07569000          -1.72863000         
O                    -0.86370000          -1.36265000          -1.79548000         
H                    -3.01376000           0.58399000          -2.25026000         
H                    -4.72285000           0.32747000          -1.85936000         
H                    -3.66246000          -1.06415000          -2.19182000         
C                     0.19625000          -0.92670000          -1.35991000         
C                     1.50769000          -1.36412000          -1.95654000         
H                     1.47740000          -2.43255000          -2.18752000         
H                     1.64529000          -0.80520000          -2.88852000         
C                     0.46843000           0.19133000          -0.28934000         
C                    -0.68946000           0.19985000           0.76084000         
O                    -1.83817000           0.73831000           0.25157000         
C                     0.86564000           1.57710000          -0.96027000         
C                     1.99272000          -0.06104000           0.15287000         
C                     2.60579000          -0.98448000          -0.94350000         
C                     2.35354000          -0.50285000           1.57108000         
O                    -0.64019000          -0.17485000           1.92791000         
C                     3.23394000          -2.25232000          -0.33830000         
C                     1.95027000          -1.95396000           1.82747000         
H                     1.89402000           0.14318000           2.32813000         
H                     3.43788000          -0.40322000           1.71861000         
C                     2.33469000          -2.90920000           0.70095000         
H                     4.19207000          -1.99540000           0.12979000         
H                     3.46852000          -2.97433000          -1.13018000         
H                     0.87116000          -2.03455000           1.98746000         
H                     2.41047000          -2.28572000           2.76589000         
H                     2.83401000          -3.78968000           1.12148000         
H                     1.42202000          -3.28286000           0.21981000         
C                     0.46215000           3.02862000          -0.63565000         
C                     2.07351000           1.42151000          -0.06565000         
H                     1.07946000           1.49504000          -2.03536000         
C                     2.58968000           2.54742000           0.41663000         
C                     1.74872000           3.70747000          -0.05457000         
H                     2.28124000           4.27830000          -0.82182000         
H                     1.48220000           4.37651000           0.76912000         
H                    -0.34624000           3.05877000           0.10252000         
H                     0.12226000           3.56007000          -1.53152000         
H                     3.35973000           2.60913000           1.17293000         
H                     3.40483000          -0.45853000          -1.48236000         
