  48
        -65.77068404
 Si        -2.7158816323       -1.4936181132        0.4992165669
 C         -1.2695893694       -2.6702781190        0.8894689714
 H         -1.6158608386       -3.6141143153        1.2981721109
 H         -0.5782539174       -2.2388663450        1.6097773881
 H         -0.7158435617       -2.8819065199       -0.0209170704
 C         -3.4240344761       -0.7490249165        2.1054924842
 H         -3.8266877676       -1.5184028037        2.7565689156
 H         -4.2260240033       -0.0485608789        1.8901001420
 H         -2.6644103194       -0.2073748047        2.6624400602
 C         -4.0431174520       -2.2937999849       -0.5902436264
 O         -0.3398636333       -1.4241874527       -2.1329825326
 H         -4.4737861029       -3.1633544042       -0.1054020351
 H         -3.6140314169       -2.6127627416       -1.5345471647
 H         -4.8510788200       -1.6033498714       -0.8118982197
 C          0.3081693060       -0.4377301964       -1.8344296618
 C          1.8415573900       -0.5509715101       -1.8257020227
 H          2.0224024334       -1.6259511179       -1.7492181145
 H          2.1792760084       -0.2457214443       -2.8199139090
 C         -0.2625193367        0.7995843312       -1.3391719100
 C         -1.2546315624        0.6225511863       -0.4062654298
 O         -2.1749359277       -0.2943308230       -0.5232740657
 C          0.6295094897        2.0052026064       -1.1067133556
 C          1.9417943578        0.6014466143        0.4621328889
 C          2.7217618556        0.1852874014       -0.7674581399
 C          2.0420511716       -0.1632229205        1.7509380331
 O         -1.2995066925        1.3181845893        0.7499762732
 C          3.9660119241       -0.6540424521       -0.4458421902
 C          3.3700888474       -0.8863905084        1.9436451482
 H          1.2410521602       -0.9126325159        1.7398273964
 H          1.8477901498        0.5042026705        2.5935193335
 C          3.7228360204       -1.6534848117        0.6764398102
 H          4.7714115916        0.0171454252       -0.1362833794
 H          4.2979909789       -1.1660339049       -1.3510999288
 H          3.2921818446       -1.5639270063        2.7962731386
 H          4.1599338941       -0.1636400715        2.1609338811
 H          4.6195494618       -2.2555174592        0.8348032319
 H          2.9042150959       -2.3267290530        0.4144651950
 C         -0.1463034471        3.3200721277       -0.9431107240
 C          1.0503003977        1.5745354821        0.2715574882
 H          1.4003207215        2.0769948913       -1.8672643829
 C         -0.1078850744        2.0698979417        1.0895483444
 C         -0.3026934743        3.4953763165        0.5755850108
 H          0.4773431343        4.1391832613        0.9823154927
 H         -1.2755833367        3.8925290657        0.8586093563
 H         -1.1186048845        3.2511051854       -1.4314430718
 H          0.3971644426        4.1540780956       -1.3853705981
 H         -0.0107902324        1.9853423702        2.1724744783
 H          3.0845120622        1.1069746326       -1.2358819311
48

Si                   -2.61434000          -1.82743000           0.47888000         
C                    -1.64708000          -3.29326000           1.17913000         
H                    -2.31684000          -4.01491000           1.65240000         
H                    -0.92455000          -2.94135000           1.92165000         
H                    -1.09713000          -3.79332000           0.37626000         
C                    -3.45510000          -0.96404000           1.91774000         
H                    -4.12773000          -1.65479000           2.43549000         
H                    -4.04790000          -0.11176000           1.57215000         
H                    -2.72051000          -0.60475000           2.64454000         
C                    -3.96108000          -2.49345000          -0.65157000         
O                    -0.23576000          -0.39659000          -3.00138000         
H                    -4.56267000          -3.24231000          -0.12719000         
H                    -3.52696000          -2.96082000          -1.53971000         
H                    -4.62647000          -1.68741000          -0.97513000         
C                     0.49361000          -0.21479000          -2.03204000         
C                     1.84122000          -0.90036000          -1.88512000         
H                     1.68871000          -1.86804000          -1.39887000         
H                     2.31774000          -1.03467000          -2.85948000         
C                     0.26324000           0.70756000          -0.77685000         
C                    -1.06482000           0.33465000          -0.03540000         
O                    -1.51855000          -0.90499000          -0.37453000         
C                     0.57184000           2.24527000          -1.01201000         
C                     1.63445000           0.56850000           0.07518000         
C                     2.63051000           0.08675000          -1.00455000         
C                     1.52469000          -0.33646000           1.30344000         
O                    -1.60354000           1.02392000           0.82687000         
C                     3.92616000          -0.47708000          -0.42309000         
C                     2.89951000          -0.69918000           1.84645000         
H                     1.00611000          -1.26659000           1.04068000         
H                     0.93405000           0.13482000           2.09811000         
C                     3.72220000          -1.39929000           0.77173000         
H                     4.55323000           0.36339000          -0.09724000         
H                     4.49175000          -1.00121000          -1.20255000         
H                     2.78879000          -1.36269000           2.71159000         
H                     3.42230000           0.20106000           2.19085000         
H                     4.69634000          -1.68787000           1.18271000         
H                     3.22366000          -2.32367000           0.45667000         
C                    -0.26428000           3.48128000          -0.63142000         
C                     1.39330000           2.03483000           0.24931000         
H                     1.15055000           2.44461000          -1.92401000         
C                     1.31700000           2.99176000           1.16800000         
C                     0.34330000           4.04481000           0.69661000         
H                     0.84846000           5.00028000           0.52958000         
H                    -0.45483000           4.19284000           1.43208000         
H                    -1.32189000           3.22819000          -0.50694000         
H                    -0.20413000           4.24553000          -1.41507000         
H                     1.66979000           2.90468000           2.18639000         
H                     2.92106000           0.92826000          -1.65057000         
