  48
        -65.77145994
 Si        -2.8430727850       -0.2115539255        0.6913270440
 C         -4.6018370011        0.2239851532        0.1287534199
 H         -5.3401628983       -0.3200728124        0.7082179808
 H         -4.7431623638       -0.0342611874       -0.9159053595
 H         -4.8118332220        1.2838905997        0.2368138609
 C         -2.4632564154       -2.0686538348        0.5017374432
 H         -3.3192132763       -2.6773909632        0.7755454021
 H         -1.6295977293       -2.3887077039        1.1221729497
 H         -2.2135688894       -2.2886888567       -0.5327308255
 C         -2.4873165994        0.3728158343        2.4712029900
 O         -0.8106226457       -1.1398712717       -2.3232611539
 H         -1.4696777112        0.1392977196        2.7734526299
 H         -3.1571048694       -0.0977846093        3.1841892665
 H         -2.6098104143        1.4483152022        2.5613713653
 C          0.1731873919       -0.4753755426       -2.0617569342
 C          1.5830033461       -1.0724560087       -2.1560897229
 H          1.4839878636       -2.0260064484       -2.6796827480
 H          2.2311000618       -0.4419409515       -2.7608294431
 C          0.1641173884        0.8504552393       -1.4733948546
 C         -0.7141218680        1.0860454584       -0.4490319859
 O         -1.9325475080        0.6135374663       -0.4306454262
 C          1.4956571321        1.5472749230       -1.2989960693
 C          2.1138079717       -0.2979078440        0.3040218062
 C          2.2174089403       -1.3725093432       -0.7686386651
 C          2.4320780776       -0.7526452028        1.7040609721
 O         -0.3643581850        1.7635908332        0.6700497999
 C          1.4989321534       -2.6431368037       -0.2633741017
 C          1.6404690065       -1.9855716977        2.1249415013
 H          2.2678075047        0.0637029152        2.4076188240
 H          3.4989006970       -1.0021286717        1.7367209341
 C          1.9168099951       -3.0976123992        1.1267615569
 H          1.6855323391       -3.4491568693       -0.9761876637
 H          0.4252483380       -2.4454726946       -0.2652887704
 H          0.5735193971       -1.7507792335        2.1328326728
 H          1.9302899791       -2.2867444030        3.1337951961
 H          2.9821578629       -3.3417152782        1.1368005545
 H          1.3631180325       -3.9998264751        1.3946325045
 C          1.3791538460        3.0721955083       -1.1364967026
 C          1.7977962829        0.9759999430        0.0611109489
 H          2.2069183428        1.3033528833       -2.0778561683
 C          1.0571208548        1.9544992658        0.9294424255
 C          1.4474958416        3.3181276448        0.3766155897
 H          2.4598146341        3.5657179419        0.6967390194
 H          0.7664154649        4.0983552164        0.7107025232
 H          0.4310655244        3.4219374558       -1.5457320919
 H          2.1838791695        3.5854779022       -1.6613700635
 H          1.1596943779        1.8535444861        2.0094978720
 H          3.2762701384       -1.6147672012       -0.9308527956
48

Si                   -2.90472983          -0.71307586           0.85331463         
C                    -4.35574183           0.10453226          -0.00274303         
H                    -5.28555755          -0.10393863           0.53559054         
H                    -4.46388243          -0.26701464          -1.02581431         
H                    -4.22477735           1.18982025          -0.04433712         
C                    -3.25495445          -2.56052289           0.99273480         
H                    -4.17345605          -2.73887713           1.55846420         
H                    -2.42868548          -3.06426387           1.50319180         
H                    -3.36565170          -3.00261431          -0.00163262         
C                    -2.75330657          -0.02735002           2.60006144         
O                    -0.48689037          -0.47271539          -2.92932247         
H                    -1.82647914          -0.37405493           3.06672940         
H                    -3.59466906          -0.35387106           3.21770075         
H                    -2.74182576           1.06650892           2.58713719         
C                     0.41664360          -0.39973331          -2.10425839         
C                     1.74852713          -1.10552019          -2.27878234         
H                     1.62354629          -2.04925993          -2.81722317         
H                     2.41373708          -0.45116334          -2.85051076         
C                     0.53870490           0.51561612          -0.82719658         
C                    -0.83906830           0.68879200          -0.15400015         
O                    -1.47159168          -0.50939284           0.01760386         
C                     1.39417385           1.80200471          -1.20133025         
C                     1.73309263          -0.11879772           0.03958909         
C                     2.26744547          -1.29111306          -0.83496796         
C                     1.63147207          -0.43661062           1.54383592         
O                    -1.30088035           1.75141514           0.25241537         
C                     1.75235795          -2.66587240          -0.35968315         
C                     1.10283815          -1.82177946           1.86512679         
H                     1.01086542           0.30899255           2.05658505         
H                     2.63344704          -0.36352550           1.99032835         
C                     1.90152656          -2.88233464           1.13291943         
H                     2.29004348          -3.45813020          -0.89549751         
H                     0.69146926          -2.78580178          -0.61904732         
H                     0.04744533          -1.90427968           1.59596565         
H                     1.16672229          -1.99442248           2.94563363         
H                     2.95788087          -2.84338130           1.42278019         
H                     1.52642752          -3.87648599           1.40108354         
C                     1.29256513           3.28575718          -0.80004837         
C                     2.31236432           1.27058615          -0.13459131         
H                     1.81334372           1.75891165          -2.21734825         
C                     2.95763002           2.19417594           0.58081400         
C                     2.51723059           3.56434434           0.12983016         
H                     3.32392013           4.07481597          -0.40378940         
H                     2.20470805           4.18127637           0.97875208         
H                     0.35883445           3.50007203          -0.27323229         
H                     1.33280364           3.93807391          -1.67992068         
H                     3.47778569           2.00783383           1.51088302         
H                     3.36408887          -1.30824479          -0.82078595         
