  48
        -65.77154250
 Si        -2.8562894301       -0.4461471253        0.7734071936
 C         -4.6402202845       -0.0026703783        0.2965339848
 H         -4.8426426872        1.0573797280        0.4188765302
 H         -5.3517682570       -0.5473342175        0.9081634928
 H         -4.8330262812       -0.2563163021       -0.7411459184
 C         -2.4854675753       -2.3004082640        0.5521519767
 H         -3.3710938382       -2.9027714780        0.7281768619
 H         -1.7131468266       -2.6573785333        1.2286853350
 H         -2.1474440886       -2.4869571709       -0.4631460592
 C         -2.4307891861        0.1381884957        2.5384217221
 O         -0.6761113758       -1.3816379141       -2.0281436135
 H         -2.5728943835        1.2100714891        2.6422191922
 H         -1.3955430203       -0.0750357350        2.7924299063
 H         -3.0560679977       -0.3523208615        3.2780261109
 C          0.2341523018       -0.5873286473       -1.8788759624
 C          1.6885359868       -1.0308266286       -2.0502205103
 H          1.6424618734       -2.0753131128       -2.3638391406
 H          2.1052104641       -0.4669521452       -2.8864310556
 C          0.0879265270        0.7780711483       -1.4177506994
 C         -0.8279715154        0.9760625430       -0.4144826128
 O         -1.9851905410        0.3760455660       -0.3846271768
 C          1.3373411740        1.6334603641       -1.3098749893
 C          2.1833736306       -0.0408134414        0.3230390493
 C          2.6518476116       -0.9294458206       -0.8168912613
 C          2.2791542622       -0.6311572190        1.6966023602
 O         -0.5691942036        1.7443567688        0.6658652437
 C          2.9126184857       -2.3361891680       -0.2606348700
 C          1.4675631087       -1.9307928785        1.7697649564
 H          1.9129309389        0.0747435979        2.4425796534
 H          3.3265708968       -0.8393611213        1.9311869306
 C          1.6995156567       -2.8126482271        0.5324769420
 H          3.7971062025       -2.3294085679        0.3790845970
 H          3.1170623595       -3.0255099726       -1.0816323165
 H          0.4084040774       -1.6779276820        1.8438258424
 H          1.7438346119       -2.4654919905        2.6808125382
 H          1.8381436047       -3.8526718224        0.8318148574
 H          0.8247246770       -2.7712957548       -0.1176868147
 C          1.0509052877        3.1395891895       -1.2201300543
 C          1.6843063250        1.1682073202        0.0769906732
 H          2.0628058284        1.4079035501       -2.0832892447
 C          0.8222649188        2.0821723363        0.9014896926
 C          1.0748775142        3.4541258244        0.2832011887
 H          2.0524813899        3.8207322413        0.5968570264
 H          0.3130882035        4.1730823431        0.5784872946
 H          0.0752177285        3.3659269489       -1.6508584649
 H          1.8013874269        3.7159970537       -1.7596141196
 H          0.9500723048        2.0427906649        1.9834763992
 H          3.6024476281       -0.5290104897       -1.1928071258
48

Si                   -2.87533000          -0.87763000           0.87329000         
C                    -4.35826000          -0.07234000           0.06286000         
H                    -4.25191000           1.01625000           0.04707000         
H                    -5.27443000          -0.31586000           0.60944000         
H                    -4.47332000          -0.42000000          -0.96787000         
C                    -3.17259000          -2.73861000           0.95166000         
H                    -4.09789000          -2.95924000           1.49110000         
H                    -2.34414000          -3.23347000           1.46729000         
H                    -3.24874000          -3.15533000          -0.05676000         
C                    -2.71868000          -0.25590000           2.64360000         
O                    -0.47012000          -0.58021000          -2.84885000         
H                    -2.71584000           0.83760000           2.67191000         
H                    -1.78595000          -0.61256000           3.09091000         
H                    -3.55299000          -0.61295000           3.25388000         
C                     0.43171000          -0.44521000          -2.02653000         
C                     1.74356000          -1.18574000          -2.14894000         
H                     1.55077000          -2.25437000          -2.27373000         
H                     2.25979000          -0.81583000          -3.04174000         
C                     0.50509000           0.53717000          -0.82110000         
C                    -0.87818000           0.63211000          -0.12007000         
O                    -1.46073000          -0.59541000           0.02760000         
C                     1.25957000           1.88464000          -1.21812000         
C                     1.76609000           0.06200000           0.05056000         
C                     2.58938000          -0.85703000          -0.89175000         
C                     1.61051000          -0.47328000           1.47701000         
O                    -1.38461000           1.66144000           0.32117000         
C                     3.03551000          -2.14285000          -0.17975000         
C                     1.17792000          -1.93340000           1.53296000         
H                     0.90051000           0.13150000           2.05499000         
H                     2.57297000          -0.38175000           1.99965000         
C                     1.87926000          -2.83880000           0.52732000         
H                     3.81320000          -1.90368000           0.55646000         
H                     3.49394000          -2.83172000          -0.89953000         
H                     0.09942000          -2.01976000           1.38749000         
H                     1.36046000          -2.30892000           2.54781000         
H                     2.24186000          -3.74075000           1.03391000         
H                     1.14431000          -3.18690000          -0.20864000         
C                     0.93612000           3.36874000          -0.95520000         
C                     2.05633000           1.53841000           0.01638000         
H                     1.82245000           1.80285000          -2.15953000         
C                     2.44202000           2.56098000           0.77303000         
C                     1.91074000           3.83888000           0.17525000         
H                     2.72738000           4.44495000          -0.22813000         
H                     1.36430000           4.42871000           0.91820000         
H                    -0.10414000           3.50997000          -0.64976000         
H                     1.09403000           3.97132000          -1.85704000         
H                     2.87078000           2.47934000           1.76217000         
H                     3.50137000          -0.33938000          -1.21901000         
