  48
        -65.78152101
 Si         3.0235312102       -1.2240171429       -0.0854161805
 C          3.0915768662       -1.3942974941       -1.9801223057
 H          2.3042222454       -2.0457049745       -2.3516915580
 H          4.0403896105       -1.8060268041       -2.3082065597
 H          2.9674985346       -0.4253987488       -2.4552602226
 C          4.3606500859       -0.0604951291        0.5949967062
 H          5.3590858202       -0.4498996375        0.4239087551
 H          4.2386394024        0.0852266637        1.6653548102
 H          4.2968006417        0.9156529698        0.1226435199
 C          2.9956765008       -2.9104944168        0.7878006323
 O          0.2364802744        0.4316768005        2.9262242055
 H          2.8080576203       -2.8000975382        1.8512535895
 H          3.9495060511       -3.4120401265        0.6698865800
 H          2.2290488966       -3.5649712644        0.3841674926
 C         -0.4150048032        0.1106443509        1.9709630570
 C         -1.4776239878       -0.9636527733        1.9170413048
 H         -0.9915894300       -1.8902124964        1.6027471362
 H         -1.9393227610       -1.1266372479        2.8901242033
 C         -0.3452358191        0.7441893260        0.5910793711
 C          1.0229668809        0.5411500421        0.0028050654
 O          1.5018697459       -0.6417552204        0.3544029847
 C         -1.0391627482        2.1414133840        0.4404257646
 C         -1.5213072081        0.1131482246       -0.2476533732
 C         -2.4480826321       -0.4660821150        0.8426980112
 C         -1.1239689153       -0.8747490067       -1.3360610325
 O          1.6154333072        1.2998139061       -0.7166827019
 C         -3.4710341935       -1.4897697901        0.3492083544
 C         -2.3065034785       -1.6951323155       -1.8360369313
 H         -0.3733978652       -1.5583396855       -0.9304984055
 H         -0.6624992978       -0.3237556423       -2.1586117515
 C         -2.9059360691       -2.4706024991       -0.6699618450
 H         -4.2957033429       -0.9478289679       -0.1200498283
 H         -3.8760029121       -2.0267530739        1.2098040393
 H         -1.9710193511       -2.3797073399       -2.6171407760
 H         -3.0619290166       -1.0339883111       -2.2650339573
 H         -3.7043057101       -3.1280655004       -1.0190324739
 H         -2.1361109343       -3.0953524357       -0.2121518533
 C         -0.4711767794        3.4035471373       -0.2099314063
 C         -1.8553237156        1.5182973801       -0.6579789623
 H         -1.5862348152        2.3750827632        1.3564429140
 C         -2.0434834921        2.3269269089       -1.6839765418
 C         -1.4930760199        3.6937632063       -1.3386490835
 H         -2.2879181726        4.3591146310       -0.9880567354
 H         -1.0232037511        4.1604611803       -2.2037108308
 H          0.5051398558        3.1994337372       -0.6438171904
 H         -0.3796084559        4.2314892239        0.4904001393
 H         -2.4867594739        2.1060356802       -2.6383110630
 H         -3.0115877236        0.3664089857        1.2803774334
48

Si                    3.33680000          -0.68143000          -0.01094000         
C                     3.19022000          -0.86491000          -1.88306000         
H                     2.22207000          -1.29693000          -2.15475000         
H                     3.97482000          -1.52880000          -2.25918000         
H                     3.29087000           0.10394000          -2.37975000         
C                     5.09903000          -0.16190000           0.39310000         
H                     5.81256000          -0.90883000           0.03385000         
H                     5.22479000          -0.05476000           1.47440000         
H                     5.33283000           0.79678000          -0.07857000         
C                     3.04768000          -2.39077000           0.73141000         
O                     0.78996000          -1.22452000           2.51282000         
H                     3.10077000          -2.34694000           1.82290000         
H                     3.80401000          -3.09765000           0.38003000         
H                     2.06287000          -2.77232000           0.44512000         
C                    -0.12745000          -0.98441000           1.74498000         
C                    -1.51816000          -1.51540000           1.91824000         
H                    -1.54932000          -2.55081000           1.57183000         
H                    -1.82046000          -1.45852000           2.96819000         
C                    -0.04599000          -0.14454000           0.52323000         
C                     1.00635000           0.55223000           0.05517000         
O                     2.25844000           0.44314000           0.62351000         
C                    -2.16494000           2.38275000           0.04986000         
C                    -1.42382000          -0.09033000          -0.10035000         
C                    -2.35149000          -0.54807000           1.06285000         
C                    -1.43723000          -1.10269000          -1.28461000         
O                     0.87861000           1.49581000          -0.96024000         
C                    -3.68381000          -1.16969000           0.62061000         
C                    -2.82769000          -1.57016000          -1.68996000         
H                    -0.85060000          -1.99461000          -1.01966000         
H                    -0.94134000          -0.69788000          -2.17410000         
C                    -3.53926000          -2.19202000          -0.50058000         
H                    -4.35170000          -0.37058000           0.27584000         
H                    -4.17805000          -1.64255000           1.47778000         
H                    -2.74016000          -2.31288000          -2.49203000         
H                    -3.41130000          -0.73304000          -2.08922000         
H                    -4.52696000          -2.55408000          -0.80645000         
H                    -2.98091000          -3.06897000          -0.15021000         
C                    -1.50798000           3.68163000          -0.30368000         
C                    -1.53216000           1.35097000          -0.53095000         
H                    -2.86326000           2.31653000           0.87301000         
C                    -0.43247000           1.81664000          -1.45030000         
C                    -0.64252000           3.33212000          -1.51128000         
H                    -1.19753000           3.59316000          -2.42184000         
H                     0.29567000           3.89668000          -1.51682000         
H                    -0.88189000           4.01256000           0.53468000         
H                    -2.22985000           4.46973000          -0.53049000         
H                    -0.53077000           1.40411000          -2.45995000         
H                    -2.59669000           0.29974000           1.71627000         
