  48
        -65.77984127
 Si         2.9404513839        1.8325919837        0.6569984765
 C          4.2037190289        0.8747948938       -0.3914743290
 H          5.1666408779        1.3745550825       -0.4213223077
 H          3.8520351782        0.7656190500       -1.4135683731
 H          4.3592608180       -0.1230306531        0.0109092573
 C          2.5380921237        3.5379726363       -0.0904879135
 H          2.1232189711        3.4323924242       -1.0892618955
 H          3.4238620360        4.1602915770       -0.1639478849
 H          1.8105731915        4.0741383950        0.5140782938
 C          3.4160453137        1.9232782256        2.4906953599
 O          1.2822859865       -1.8059159594        1.5594744619
 H          3.4898030875        0.9297616639        2.9214116215
 H          2.6822495062        2.4765425800        3.0683463621
 H          4.3745492865        2.4147170007        2.6152030512
 C          0.3742305554       -1.7311131490        0.7784886204
 C         -0.3488170358       -2.8809706947        0.1164305217
 H          0.1681966106       -3.1044046327       -0.8199281880
 H         -0.3374330514       -3.7750006551        0.7388972855
 C         -0.2725661504       -0.4532306187        0.2680619382
 C          0.8243107296        0.4504498849       -0.2408600330
 O          1.5096914967        0.9540989895        0.7604766324
 C         -1.2798707566        0.2497370804        1.2466507351
 C         -1.4839760347       -0.8796775076       -0.6272906229
 C         -1.7494531198       -2.3293523728       -0.1577578573
 C         -1.3544590283       -0.7147687831       -2.1346682371
 O          1.0777360399        0.6556010171       -1.3995305248
 C         -2.6196276716       -3.1742797248       -1.0879394889
 C         -2.4187201810       -1.4907424749       -2.9001302157
 H         -0.3685561679       -1.0684149791       -2.4410129704
 H         -1.4052152199        0.3469385782       -2.3784623641
 C         -2.3032440262       -2.9714736795       -2.5635697725
 H         -3.6636985240       -2.8977064249       -0.9222086400
 H         -2.5095529900       -4.2262562079       -0.8147314603
 H         -2.2818549831       -1.3319939635       -3.9709349105
 H         -3.4121294131       -1.1291532141       -2.6267431186
 H         -3.0004222742       -3.5570277956       -3.1658766045
 H         -1.2935425376       -3.3200353681       -2.7897725249
 C         -1.3086405218        1.7379184280        1.5985296342
 C         -2.2832214796        0.1429379235        0.1293747497
 H         -1.4675792078       -0.3722309714        2.1232408689
 C         -3.0412897864        1.2180597428        0.0157103506
 C         -2.7357633998        2.1571913054        1.1636300866
 H         -3.4487257458        2.0246720094        1.9825633320
 H         -2.7779064812        3.1992745074        0.8478714744
 H         -0.5754466989        2.2892922950        1.0106737381
 H         -1.1173362439        1.9282809044        2.6527090595
 H         -3.7538512930        1.4561735162       -0.7529365979
 H         -2.2673687427       -2.2795606797        0.8073977809
48

Si                    3.11565000           1.71995000           0.65134000         
C                     4.47022000           1.10252000          -0.50876000         
H                     5.26132000           1.85049000          -0.61139000         
H                     4.05573000           0.89542000          -1.49976000         
H                     4.91098000           0.18009000          -0.11956000         
C                     2.39353000           3.28262000          -0.10648000         
H                     1.92256000           3.06968000          -1.07059000         
H                     3.18408000           4.02139000          -0.27182000         
H                     1.64783000           3.73236000           0.55552000         
C                     3.92443000           2.20310000           2.28688000         
O                     2.15507000          -2.18778000          -0.10827000         
H                     4.33914000           1.31983000           2.78121000         
H                     3.18707000           2.65822000           2.95478000         
H                     4.73252000           2.92092000           2.12061000         
C                     0.94863000          -2.00625000          -0.13313000         
C                    -0.07136000          -3.10591000          -0.26743000         
H                    -0.00095000          -3.53490000          -1.27001000         
H                     0.09435000          -3.87870000           0.48824000         
C                     0.26860000          -0.68285000          -0.11363000         
C                     0.75586000           0.46820000           0.38235000         
O                     2.02499000           0.48579000           0.92346000         
C                    -2.90484000           0.11013000           1.10776000         
C                    -1.16605000          -0.91622000          -0.52627000         
C                    -1.39858000          -2.36393000          -0.01456000         
C                    -1.29078000          -0.84000000          -2.07132000         
O                    -0.04268000           1.59767000           0.54820000         
C                    -2.60840000          -3.06633000          -0.64375000         
C                    -2.57693000          -1.47371000          -2.59301000         
H                    -0.44229000          -1.34893000          -2.54984000         
H                    -1.23989000           0.19536000          -2.42848000         
C                    -2.67771000          -2.93051000          -2.16153000         
H                    -3.52655000          -2.64124000          -0.21986000         
H                    -2.60638000          -4.12876000          -0.37269000         
H                    -2.59199000          -1.41735000          -3.68779000         
H                    -3.44792000          -0.91404000          -2.23292000         
H                    -3.61868000          -3.35790000          -2.52644000         
H                    -1.87190000          -3.50955000          -2.62806000         
C                    -3.05939000           1.43578000           1.78397000         
C                    -1.95595000           0.16135000           0.16324000         
H                    -3.36863000          -0.78933000           1.48852000         
C                    -1.37391000           1.54099000           0.02285000         
C                    -2.32923000           2.40181000           0.85091000         
H                    -3.06821000           2.87226000           0.18890000         
H                    -1.82043000           3.19632000           1.40625000         
H                    -2.57725000           1.40612000           2.76816000         
H                    -4.10783000           1.71544000           1.91455000         
H                    -1.35890000           1.89932000          -1.01198000         
H                    -1.55245000          -2.35802000           1.07514000         
