  48
        -65.77713326
 Si         2.0321527810       -2.6094112832       -0.3551354336
 C          3.8822389730       -2.1909294210       -0.2545096576
 H          4.1501378779       -1.3771513174       -0.9214061572
 H          4.4771818751       -3.0530708648       -0.5337200319
 H          4.1722443293       -1.9015446522        0.7507392649
 C          1.5212724187       -3.9773230386        0.8585900940
 H          0.4444368411       -4.1187059984        0.8440121161
 H          1.8032536113       -3.7223246097        1.8770601820
 H          1.9867409202       -4.9264725314        0.6131293380
 C          1.4688154712       -2.9528225058       -2.1402322900
 O         -1.1450021225       -0.2156307212        2.9058183584
 H          0.3881649252       -3.0531187669       -2.1876156045
 H          1.9046578866       -3.8686058683       -2.5260621100
 H          1.7553412802       -2.1448185964       -2.8092908131
 C         -1.3494444077        0.3007300853        1.8422263228
 C         -2.6305342947        0.9469967850        1.3852314555
 H         -3.2376310988        0.1501588571        0.9508956570
 H         -3.1833177161        1.3760397109        2.2205209629
 C         -0.3220406863        0.4496648195        0.7271650743
 C          0.0800546295       -0.9207420191        0.2518873064
 O          1.3701995702       -1.1358159660        0.1449656463
 C          0.7216534857        1.5692611933        1.0664923530
 C         -0.9582596156        1.4064756436       -0.3493775858
 C         -2.2354959860        1.9690810645        0.3165555267
 C         -1.2093644319        0.8926063736       -1.7611787274
 O         -0.7473088777       -1.7585693883       -0.0163983030
 C         -3.3303678281        2.2570861209       -0.7067439182
 C         -2.5238438501        0.1240202458       -1.8444799562
 H         -0.3808632800        0.2484542227       -2.0628752734
 H         -1.2285727202        1.7455574465       -2.4438856156
 C         -3.7249873487        1.0274928697       -1.5316905938
 H         -2.9653878272        3.0411600293       -1.3732082709
 H         -4.2098658606        2.6516793032       -0.1938392111
 H         -2.4737483471       -0.7088393951       -1.1429938137
 H         -2.6318847166       -0.3016623524       -2.8433504026
 H         -4.1814762287        1.3752929218       -2.4603657908
 H         -4.4861540681        0.4513709160       -1.0029957076
 C          2.2477270595        1.5622612414        0.9405128338
 C          0.2728347333        2.2519908492       -0.1921845578
 H          0.4148785843        2.0676841030        1.9900361394
 C          1.2570414927        2.8544403485       -0.8337584344
 C          2.5107231729        2.7744093241        0.0114994759
 H          2.6488736105        3.6910555785        0.5926138549
 H          3.3984341602        2.6326775177       -0.6045719758
 H          2.5947731614        0.6519284170        0.4589261398
 H          2.7466072872        1.6606760688        1.9027731085
 H          1.2401088730        3.3265127154       -1.7994797104
 H         -1.9812338054        2.9103337682        0.8169716986
48

Si                    1.91350000          -2.94603000          -0.07394000         
C                     3.71175000          -2.39118000          -0.01535000         
H                     3.86313000          -1.48372000          -0.60683000         
H                     4.36466000          -3.17026000          -0.41982000         
H                     4.01647000          -2.18619000           1.01491000         
C                     1.80506000          -4.62930000           0.76564000         
H                     0.77635000          -5.00042000           0.74448000         
H                     2.12443000          -4.55534000           1.80922000         
H                     2.44646000          -5.35485000           0.25728000         
C                     1.41730000          -3.16209000          -1.87971000         
O                    -1.92172000          -1.86854000           1.16837000         
H                     0.36369000          -3.44663000          -1.95519000         
H                     2.02090000          -3.94205000          -2.35286000         
H                     1.56321000          -2.23066000          -2.43492000         
C                    -1.74669000          -0.68322000           0.93464000         
C                    -2.67745000           0.40492000           1.37497000         
H                    -3.70938000           0.13048000           1.14366000         
H                    -2.57404000           0.54162000           2.45676000         
C                    -0.59731000          -0.10656000           0.20810000         
C                     0.64584000          -0.61952000           0.15929000         
O                     0.89725000          -1.86555000           0.70435000         
C                     0.62311000           3.04793000           0.80482000         
C                    -0.96974000           1.27908000          -0.25686000         
C                    -2.19894000           1.66705000           0.62667000         
C                    -1.34254000           1.25860000          -1.76915000         
O                     1.73191000           0.11938000          -0.30322000         
C                    -3.33690000           2.29932000          -0.19390000         
C                    -2.71762000           0.65793000          -2.04708000         
H                    -0.60796000           0.68457000          -2.34906000         
H                    -1.31621000           2.28012000          -2.17325000         
C                    -3.83407000           1.41515000          -1.33795000         
H                    -2.98228000           3.25064000          -0.61199000         
H                    -4.18140000           2.55169000           0.45872000         
H                    -2.73220000          -0.39399000          -1.73722000         
H                    -2.90822000           0.65062000          -3.12690000         
H                    -4.36979000           2.04227000          -2.06095000         
H                    -4.57282000           0.69381000          -0.96798000         
C                     2.10750000           3.19722000           0.91297000         
C                     0.29632000           2.07179000          -0.05199000         
H                    -0.04962000           3.54735000           1.48777000         
C                     1.50679000           1.47200000          -0.71394000         
C                     2.64980000           2.38191000          -0.26097000         
H                     2.91427000           3.07193000          -1.07267000         
H                     3.55443000           1.82900000           0.01344000         
H                     2.45110000           2.77867000           1.86623000         
H                     2.42211000           4.24253000           0.85697000         
H                     1.43955000           1.49254000          -1.80718000         
H                    -1.92631000           2.40594000           1.38870000         
