  48
        -65.78098480
 Si         2.9471560614        1.6827804736        0.1921377651
 C          2.9843052927        2.6814028001       -1.4293091379
 H          3.9653784393        3.1067527583       -1.6132604563
 H          2.2704105612        3.5011064470       -1.4060805449
 H          2.7324203042        2.0491269495       -2.2761132945
 C          3.1448462971        2.7824093609        1.7257957846
 H          3.0175228239        2.2077046729        2.6375407059
 H          2.4168105724        3.5874288977        1.7403160124
 H          4.1324198350        3.2293404057        1.7489201549
 C          4.1592775443        0.2199795196        0.1671195409
 O          0.7565252944       -1.1655041004        2.2559023004
 H          5.1934430680        0.5489719781        0.1523216205
 H          3.9941307416       -0.4026327841       -0.7077666750
 H          4.0198228292       -0.4057008747        1.0451345380
 C         -0.2191086159       -1.1741438033        1.5584401378
 C         -1.4459307037       -2.0443919494        1.7314036570
 H         -1.1993934392       -2.9749420040        2.2411126978
 H         -2.1643254830       -1.4999856758        2.3482125654
 C         -0.4842268541       -0.2699480350        0.3656069340
 C          0.7877648374        0.1831160014       -0.2905883257
 O          1.3858550336        1.1050772646        0.4337321918
 C         -1.4318764356        0.8587712662        0.9064918947
 C         -1.6834366878       -0.9213655138       -0.4067296998
 C         -1.9708863055       -2.2522651021        0.3107138859
 C         -1.6771088982       -1.0318971572       -1.9304204991
 O          1.2315892228       -0.2522383768       -1.3217441852
 C         -1.2036549587       -3.4188053730       -0.3192477599
 C         -0.9136375679       -2.2343787575       -2.4700635423
 H         -1.2611333523       -0.1141763201       -2.3484498065
 H         -2.7220506805       -1.1004608947       -2.2468737005
 C         -1.4274641336       -3.5109297513       -1.8212812244
 H         -1.5088545108       -4.3468997654        0.1700134702
 H         -0.1357657137       -3.2758821552       -0.1342634049
 H          0.1479416876       -2.1109707474       -2.2565567248
 H         -1.0393324226       -2.2778642316       -3.5534441270
 H         -2.4924796782       -3.6357912641       -2.0327873846
 H         -0.8994315793       -4.3783885492       -2.2208102324
 C         -1.4226870556        2.3337342353        0.5059678998
 C         -2.4939410113        0.2821094316        0.0144127159
 H         -1.5990736295        0.7667542026        1.9815366977
 C         -3.2931453967        1.2149279656       -0.4791036061
 C         -2.9069599550        2.5519198668        0.1195711501
 H         -3.5076742183        2.7866349111        1.0029419486
 H         -3.0323518612        3.3607900495       -0.5991763267
 H         -0.7915937134        2.4913779211       -0.3693151756
 H         -1.0857484855        2.9951091316        1.3014983602
 H         -4.0709023113        1.1137394939       -1.2139489890
 H         -3.0436644525       -2.4638927676        0.2912966598
48

Si                    3.01869886           1.61114120           0.32925554         
C                     2.79542861           2.61526087          -1.24856232         
H                     3.76684522           2.93212361          -1.63920316         
H                     2.19553920           3.50934720          -1.05490676         
H                     2.29575235           2.02164463          -2.01991965         
C                     4.00998646           2.66784799           1.53763850         
H                     4.21222778           2.11053523           2.45654053         
H                     3.45224355           3.57265992           1.79745092         
H                     4.96479723           2.96524321           1.09437856         
C                     4.04265485           0.08721130          -0.08850303         
O                     1.34631090          -1.58133488           1.90926941         
H                     4.99888820           0.37684888          -0.53435186         
H                     3.50954113          -0.55152700          -0.79891298         
H                     4.24562102          -0.49588897           0.81421328         
C                     0.26288509          -1.37565471           1.39062360         
C                    -1.03712133          -2.01057967           1.80052741         
H                    -0.87510574          -2.98213285           2.27480262         
H                    -1.56472254          -1.34219969           2.48809280         
C                    -0.01493128          -0.43469348           0.27837860         
C                     0.50112311           0.80649476           0.23320320         
O                     1.56508491           1.16530553           1.03583565         
C                    -3.35129600           0.60591739           0.45397905         
C                    -1.32553401          -0.82715390          -0.36294903         
C                    -1.74185580          -2.11364969           0.43180232         
C                    -1.22975443          -1.05414002          -1.89543398         
O                    -0.16058324           1.83777841          -0.42283959         
C                    -1.32032932          -3.46411841          -0.19550829         
C                    -0.67547864          -2.40128227          -2.32911435         
H                    -0.61773555          -0.27536185          -2.37005007         
H                    -2.23322388          -0.95581817          -2.33528810         
C                    -1.48335115          -3.51901989          -1.70007203         
H                    -1.90802574          -4.26898575           0.26415603         
H                    -0.27158331          -3.68989945           0.03976458         
H                     0.38188966          -2.48519713          -2.05122253         
H                    -0.72651261          -2.48124932          -3.42118178         
H                    -2.54183665          -3.43210761          -1.97258870         
H                    -1.13116279          -4.48687633          -2.07411946         
C                    -3.69329938           2.06275270           0.47770521         
C                    -2.17854146           0.39849189          -0.15799009         
H                    -3.97615523          -0.15056189           0.90740108         
C                    -1.56911694           1.69141890          -0.65163723         
C                    -2.35969723           2.73219773           0.14171141         
H                    -2.50073962           3.65673750          -0.42859655         
H                    -1.82628855           3.00877822           1.06112380         
H                    -4.05087713           2.37946082           1.46187818         
H                    -4.46114798           2.28590491          -0.27000845         
H                    -1.75104751           1.80951585          -1.72641076         
H                    -2.82868276          -2.15357566           0.57044495         
