  48
        -65.78237007
 Si         3.1275380693        0.4971093163       -0.1810145999
 C          3.9620713481       -1.0849473520        0.4574202724
 H          5.0388002407       -1.0143364528        0.3522051035
 H          3.6353387425       -1.9656767520       -0.0875827727
 H          3.7411813613       -1.2476007844        1.5077022558
 C          3.3187146256        0.7020552914       -2.0643908799
 H          3.0363476480       -0.2017421718       -2.5989150018
 H          4.3432351213        0.9358152852       -2.3350436548
 H          2.6873556150        1.5084834467       -2.4264158175
 C          3.6403993266        2.0551544218        0.7751296157
 O          0.1349157409        0.1839520550        2.7925076752
 H          3.0989625123        2.9241782557        0.4116582937
 H          4.7020396445        2.2585629501        0.6784624832
 H          3.4152431345        1.9484962262        1.8332626299
 C         -0.5857110482       -0.2334830332        1.9287145388
 C         -1.5416406176       -1.4046308952        2.0416169498
 H         -1.1938587027       -2.1291276819        2.7767331845
 H         -2.5091432045       -1.0220212317        2.3741409147
 C         -0.7658933174        0.3614816415        0.5454069360
 C          0.4895567953        0.9365655126       -0.0422236591
 O          1.5210573532        0.1445979616        0.1846135215
 C         -2.0754518139        1.2230603091        0.6148885898
 C         -1.5320568217       -0.7349271951       -0.2880113239
 C         -1.6204069932       -1.9693552698        0.6234816814
 C         -1.0977908296       -1.0434633152       -1.7207645680
 O          0.5652850292        1.9625067407       -0.6661794979
 C         -0.4336717880       -2.9158220024        0.4154926985
 C          0.0682034530       -2.0185415812       -1.8324761480
 H         -0.8533977770       -0.1041319141       -2.2216707099
 H         -1.9658833126       -1.4719748591       -2.2301991903
 C         -0.2417159500       -3.2857220796       -1.0482198697
 H         -0.5886412007       -3.8139794770        1.0176933287
 H          0.4734268350       -2.4211732606        0.7725025976
 H          0.9749596384       -1.5636134598       -1.4334392639
 H          0.2398745877       -2.2499267550       -2.8858203764
 H         -1.1485561013       -3.7541134873       -1.4385428007
 H          0.5769391707       -4.0010308697       -1.1452158563
 C         -2.3766468342        2.5532728075       -0.0763637878
 C         -2.7015021362        0.2192691411       -0.3089232628
 H         -2.4676826189        1.2386356358        1.6349124842
 C         -3.5736721532        0.7699643146       -1.1376628588
 C         -3.7161745937        2.2358146850       -0.7866542429
 H         -4.5637104883        2.4064687210       -0.1161258485
 H         -3.8637946126        2.8440525705       -1.6780897148
 H         -1.6084387078        2.7811285524       -0.8130086116
 H         -2.4548105228        3.3872213906        0.6183327856
 H         -4.0947546845        0.3193021121       -1.9629445301
 H         -2.5571521686       -2.5033606158        0.4397732889
48

Si                    3.15104643           0.95413844          -0.52134065         
C                     3.51198646          -0.74773237           0.19390940         
H                     4.58974040          -0.87864100           0.33091887         
H                     3.15668480          -1.53221812          -0.48084149         
H                     3.04107884          -0.89331029           1.16734444         
C                     4.40053808           1.17589562          -1.93785043         
H                     4.28608627           0.36499972          -2.66361409         
H                     5.42263207           1.15696136          -1.54990696         
H                     4.23084280           2.12821312          -2.44726779         
C                     3.49093040           2.28859546           0.74757596         
O                     1.05146655           0.18084748           2.17464485         
H                     3.23720433           3.27317406           0.34309593         
H                     4.54846108           2.29701985           1.02693169         
H                     2.90003287           2.13176009           1.65386146         
C                     0.19804415          -0.37016365           1.49457167         
C                    -0.90703029          -1.20483627           2.08624368         
H                    -0.50860494          -1.92836012           2.80269599         
H                    -1.62408067          -0.54856939           2.58655824         
C                     0.05627112          -0.23020590          -0.01521250         
C                     0.44091814           0.99479264          -0.43884300         
O                     1.61970196           1.09311265          -1.17275043         
C                    -3.26888084           0.70793702           0.58930032         
C                    -1.33183418          -0.80410364          -0.28185739         
C                    -1.49494780          -1.86569237           0.83907957         
C                    -1.42766360          -1.45493685          -1.68529178         
O                    -0.49515569           1.97179798          -0.78188291         
C                    -0.73189473          -3.18949364           0.58405668         
C                    -0.56464326          -2.69963813          -1.85849504         
H                    -1.13862736          -0.74753322          -2.47248276         
H                    -2.47362815          -1.72557609          -1.88620707         
C                    -0.92264445          -3.74417497          -0.81752986         
H                    -1.05715435          -3.93861504           1.31660431         
H                     0.34455098          -3.05159927           0.75333712         
H                     0.49793507          -2.43743251          -1.78244642         
H                    -0.71489834          -3.11245518          -2.86253685         
H                    -1.96034603          -4.06936871          -0.95405320         
H                    -0.28794182          -4.62767552          -0.95207944         
C                    -3.61582026           2.15768319           0.47756578         
C                    -2.25598205           0.38895351          -0.22539046         
H                    -3.68884299           0.07182853           1.35624567         
C                    -1.82541602           1.54508903          -1.08070336         
C                    -2.85632747           2.63024697          -0.76343391         
H                    -3.56819302           2.71143227          -1.59555326         
H                    -2.40910046           3.61849410          -0.61461084         
H                    -3.26852118           2.69051215           1.37014742         
H                    -4.69279838           2.31531097           0.37393797         
H                    -1.87390661           1.31136465          -2.14996369         
H                    -2.55198087          -2.11538178           0.99427152         
