  48
        -65.78034481
 Si         3.1934228156        0.7733363327       -0.1261155140
 C          4.1728423075       -0.6480653581        0.6665794253
 H          3.8965440143       -1.6126803301        0.2518771620
 H          4.0086727049       -0.6908898179        1.7387205958
 H          5.2353721136       -0.5121480065        0.4999509249
 C          3.2817849430        0.7353714837       -2.0271649277
 H          2.6108125112        1.4745070637       -2.4554786300
 H          2.9947738608       -0.2367857289       -2.4206333661
 H          4.2837444431        0.9512459153       -2.3833689790
 C          3.6439403557        2.4712985228        0.5944855114
 O         -0.0677722800        0.5778151313        2.9860143455
 H          3.0150600170        3.2478431209        0.1684051051
 H          4.6784425883        2.7325902912        0.3960316242
 H          3.4972881146        2.4864830617        1.6715649025
 C         -0.3774327326       -0.1055841973        2.0492698739
 C         -0.5714153861       -1.6040579896        2.0563528161
 H          0.4161581257       -2.0424834487        1.8848362111
 H         -0.9345515593       -1.9581291671        3.0204248926
 C         -0.6677620023        0.3938000480        0.6464704429
 C          0.5465122509        1.0555386696        0.0592106890
 O          1.6308489504        0.3566390552        0.3533759254
 C         -2.0746940259        1.0657509510        0.4998394030
 C         -1.2006855968       -0.8352209019       -0.1754405680
 C         -1.5043630291       -1.9174070580        0.8853374857
 C         -0.3471350296       -1.3758162520       -1.3097684530
 O          0.5672233319        2.0502045870       -0.6147995782
 C         -1.3442513942       -3.3263699406        0.3144436375
 C         -1.0659207562       -2.5117312273       -2.0481889862
 H          0.5962566545       -1.7336752870       -0.8917527324
 H         -0.1125078088       -0.5696493328       -2.0074945442
 C         -1.9218064960       -3.3576607631       -1.0971742249
 H         -1.8626033636       -4.0428052355        0.9540475755
 H         -0.2910027799       -3.6110071281        0.2838488718
 H         -0.3176670748       -3.1397834111       -2.5351041814
 H         -1.7021852930       -2.0953619676       -2.8291782958
 H         -2.9380587446       -2.9601896672       -1.0630778991
 H         -1.9790000554       -4.3841625319       -1.4616629905
 C         -2.4153954769        2.3912677942       -0.1815174657
 C         -2.3559055986        0.0429726623       -0.5641111237
 H         -2.6357578002        0.9365833204        1.4285038662
 C         -3.0370568560        0.5349202442       -1.5826570971
 C         -3.4381567090        1.9589104426       -1.2624897864
 H         -4.4606484193        2.0013658142       -0.8750747929
 H         -3.3891029719        2.5919335737       -2.1478743604
 H         -1.5307453833        2.8090454660       -0.6574442246
 H         -2.8245195141        3.1266585409        0.5083711847
 H         -3.2808967496        0.0636916185       -2.5177759996
 H         -2.5410347331       -1.7933434717        1.2158266873
48

Si                    3.18107000           1.40658000          -0.03941000         
C                     4.03357000          -0.16124000           0.57025000         
H                     3.44958000          -1.04615000           0.30029000         
H                     4.14588000          -0.13625000           1.65803000         
H                     5.02757000          -0.25794000           0.12505000         
C                     3.08719000           1.29053000          -1.92067000         
H                     2.60508000           2.17762000          -2.34062000         
H                     2.51887000           0.40685000          -2.22645000         
H                     4.09295000           1.21076000          -2.34447000         
C                     4.28430000           2.86857000           0.39763000         
O                     1.59491000          -0.70768000           2.41298000         
H                     3.87536000           3.79479000          -0.01595000         
H                     5.29039000           2.72344000          -0.00669000         
H                     4.36078000           2.97790000           1.48326000         
C                     0.59461000          -0.94969000           1.76905000         
C                    -0.39965000          -2.00225000           2.15922000         
H                     0.11046000          -2.96799000           2.20967000         
H                    -0.81797000          -1.75537000           3.14021000         
C                     0.15915000          -0.24705000           0.53927000         
C                     0.58728000           0.95330000           0.10310000         
O                     1.66936000           1.59148000           0.67730000         
C                    -3.12561000           0.53577000           0.05877000         
C                    -1.01644000          -0.98109000          -0.04892000         
C                    -1.49402000          -1.94746000           1.07917000         
C                    -0.55050000          -1.80955000          -1.27446000         
O                    -0.10608000           1.68249000          -0.86013000         
C                    -1.81274000          -3.37207000           0.57625000         
C                    -1.66880000          -2.67796000          -1.85188000         
H                     0.28407000          -2.46257000          -0.97995000         
H                    -0.13820000          -1.18240000          -2.07435000         
C                    -2.51503000          -3.35503000          -0.77459000         
H                    -2.43459000          -3.89045000           1.31548000         
H                    -0.89289000          -3.96498000           0.48289000         
H                    -1.21815000          -3.43936000          -2.50057000         
H                    -2.32106000          -2.07803000          -2.49781000         
H                    -3.47377000          -2.83208000          -0.67865000         
H                    -2.74998000          -4.37951000          -1.08676000         
C                    -3.44364000           1.93408000          -0.36252000         
C                    -1.95409000           0.12913000          -0.44723000         
H                    -3.69520000           0.03400000           0.82848000         
C                    -1.34220000           1.15580000          -1.36167000         
C                    -2.41927000           2.24052000          -1.45588000         
H                    -2.92210000           2.17550000          -2.42965000         
H                    -2.01678000           3.25442000          -1.36020000         
H                    -3.31452000           2.61308000           0.48851000         
H                    -4.46898000           2.02872000          -0.72994000         
H                    -1.15503000           0.75377000          -2.36331000         
H                    -2.40572000          -1.57034000           1.55599000         
