  48
        -65.78018296
 Si         2.4159644639       -2.2861821527       -1.1509497109
 C          3.9585191562       -2.4172616256       -0.0535586599
 H          3.6923283002       -2.6801839972        0.9651754449
 H          4.5082927586       -1.4818225531       -0.0181573046
 H          4.6296019559       -3.1811237463       -0.4300350122
 C          1.3671892984       -3.8702783413       -1.1596862835
 H          1.9260313357       -4.7272441191       -1.5215528211
 H          0.4927263382       -3.7502025262       -1.7932869012
 H          1.0154926477       -4.0986657200       -0.1565616602
 C          2.8185158389       -1.6691753224       -2.9066372652
 O         -0.3806890780       -1.9002228976        1.9124240339
 H          3.4086434408       -0.7563811008       -2.8811944565
 H          1.9060310248       -1.4552240500       -3.4560843747
 H          3.3807100210       -2.4070254279       -3.4696930744
 C         -0.9220250843       -0.9513670557        1.4156275850
 C         -2.3705301508       -0.5510923526        1.5549406660
 H         -2.9181165096       -0.9927203279        0.7188523542
 H         -2.8031114145       -0.9147279531        2.4862300543
 C         -0.2600453052        0.0954637972        0.5280632559
 C          0.3536748353       -0.6747151385       -0.6142374775
 O          1.5639226159       -1.0923239081       -0.3223345987
 C          0.6516883726        1.1314732738        1.2693709722
 C         -1.3199203894        1.2258661843        0.2968837296
 C         -2.3388011271        0.9742724723        1.4327676425
 C         -1.9289838251        1.3575898267       -1.0921150172
 O         -0.2225507676       -0.9512331091       -1.6356917128
 C         -3.6993583966        1.6493007091        1.2607570560
 C         -3.1864156508        2.2172880601       -1.0997527540
 H         -2.1772462357        0.3614577649       -1.4611094419
 H         -1.1781598836        1.7738767930       -1.7659948165
 C         -4.2223259656        1.6017763589       -0.1685690413
 H         -3.5991031770        2.6976529785        1.5522944624
 H         -4.4129442735        1.1836179397        1.9442655750
 H         -3.5766894201        2.2776840520       -2.1169225652
 H         -2.9488009237        3.2295248954       -0.7658229220
 H         -5.1640834583        2.1507647664       -0.2266381735
 H         -4.4177410767        0.5709426491       -0.4703964548
 C          2.0554725436        1.5817615649        0.8611550628
 C         -0.2322895583        2.1930122267        0.6711361822
 H          0.5767028818        1.0031199780        2.3509033597
 C          0.4382494019        3.2633321773        0.2859704573
 C          1.8832857117        3.1145489396        0.7134856404
 H          2.0668363058        3.6216738623        1.6651746607
 H          2.5641317859        3.5343485680       -0.0266172008
 H          2.3350609154        1.1541912425       -0.1006623196
 H          2.8157715894        1.3121360651        1.5912731154
 H          0.0811925077        4.1161180122       -0.2624942497
 H         -1.9041420460        1.3595339191        2.3630487207
48

Si                    2.34935354          -2.53682376          -1.01911262         
C                     4.06165931          -2.76067687          -0.26875502         
H                     3.99213418          -3.27439611           0.69457284         
H                     4.54036084          -1.79030375          -0.10794222         
H                     4.69796528          -3.35451354          -0.93136976         
C                     1.67860214          -4.24525251          -1.46660776         
H                     2.37701147          -4.78027250          -2.11529398         
H                     0.72080595          -4.14853890          -1.98659426         
H                     1.51899767          -4.83607330          -0.55977676         
C                     2.53108582          -1.56341098          -2.61726152         
O                    -1.40391308          -2.65594666           0.43132909         
H                     3.03131140          -0.60675513          -2.44091215         
H                     1.55444951          -1.36719913          -3.06894469         
H                     3.13159383          -2.12866032          -3.33700306         
C                    -1.51120475          -1.45386500           0.61360496         
C                    -2.70207015          -0.79827518           1.25842046         
H                    -3.56229219          -0.89198673           0.59114638         
H                    -2.91920270          -1.26128107           2.22493488         
C                    -0.54007169          -0.41813893           0.17005650         
C                     0.77212453          -0.59539735          -0.06271612         
O                     1.31723225          -1.85176510           0.09875213         
C                     0.12122483           2.68367554           1.60462001         
C                    -1.23627873           0.91807603           0.26990349         
C                    -2.22592641           0.65665585           1.43892256         
C                    -1.99273061           1.22119316          -1.05083274         
O                     1.64095062           0.47361516          -0.27387622         
C                    -3.38478587           1.65799643           1.51928465         
C                    -3.05749010           2.30234002          -0.89037857         
H                    -2.48438494           0.31314798          -1.42723893         
H                    -1.30422021           1.52373618          -1.84865276         
C                    -4.06827131           1.91390482           0.17995466         
H                    -3.00322254           2.61414606           1.89813239         
H                    -4.12805314           1.31130860           2.24706839         
H                    -3.57691690           2.44562490          -1.84519332         
H                    -2.58932916           3.25997037          -0.63496858         
H                    -4.81095182           2.71199742           0.29232870         
H                    -4.61835954           1.02064821          -0.13923059         
C                     1.54675505           3.13861771           1.59826753         
C                    -0.13872575           1.90939514           0.54219940         
H                    -0.52113092           2.81116891           2.46506047         
C                     1.05482842           1.77915311          -0.36603802         
C                     2.00648605           2.85067301           0.16920022         
H                     1.89713329           3.76915733          -0.42280381         
H                     3.05822654           2.54938252           0.13325597         
H                     2.12502530           2.54876595           2.31924567         
H                     1.64648121           4.19743730           1.84992068         
H                     0.82153593           1.98620227          -1.41595311         
H                    -1.69184016           0.69469848           2.40031833         
