  48
        -65.78133912
 Si         3.1760532870        0.7954792120       -0.1548899622
 C          3.5327301875        2.6315738868        0.1718492332
 H          3.3754187932        2.8773289616        1.2189923222
 H          2.8713356274        3.2621712464       -0.4152783589
 H          4.5554592375        2.8929632357       -0.0805364562
 C          4.2003998688       -0.3607061103        0.9489118228
 H          5.2600750182       -0.1917062271        0.7943811494
 H          4.0002653626       -1.4066839472        0.7379022916
 H          3.9859093307       -0.1912288808        1.9994557713
 C          3.3062100050        0.3470086660       -2.0012619305
 O          0.0420977993        0.4154433806        2.9354606047
 H          3.0992572148       -0.7065087421       -2.1733400598
 H          4.2974258038        0.5535941022       -2.3911980621
 H          2.5933237407        0.9217371879       -2.5859190372
 C         -0.3288451245       -0.2036479911        1.9766608216
 C         -0.5719001884       -1.6945696814        1.8977933178
 H          0.3480901537       -2.1594587928        1.5359784101
 H         -0.8150013148       -2.1182530958        2.8714173391
 C         -0.6886417689        0.3808849615        0.6217704354
 C          0.5140761566        1.0121115038       -0.0217561683
 O          1.6209592349        0.4009107904        0.3669884540
 C         -2.0659042984        1.1248691465        0.5403080764
 C         -1.3188243075       -0.7942615533       -0.2190410134
 C         -1.6934505975       -1.8283323645        0.8638197973
 C         -0.4649255579       -1.3422302728       -1.3548038181
 O          0.5052567127        1.9092116569       -0.8218166572
 C         -1.9525003328       -3.2439226697        0.3468869287
 C         -0.9707540367       -2.6850491802       -1.8665910004
 H          0.5583696117       -1.4710480634       -0.9914355735
 H         -0.4410527435       -0.6071970539       -2.1621277695
 C         -0.9643948846       -3.6910215933       -0.7227438270
 H         -2.9562810641       -3.2703446186       -0.0840431844
 H         -1.9372577353       -3.9361944090        1.1915713379
 H         -0.3311062176       -3.0292550004       -2.6812411821
 H         -1.9853608143       -2.5753604230       -2.2542588030
 H         -1.2476717613       -4.6813207006       -1.0840799850
 H          0.0422697027       -3.7640918272       -0.3057464872
 C         -2.3506387290        2.4966676773       -0.0712852317
 C         -2.4182448357        0.1683464673       -0.5648740269
 H         -2.6102615817        0.9821166981        1.4763333335
 C         -3.0791997519        0.7425242349       -1.5525461542
 C         -3.4012809513        2.1691583185       -1.1628055959
 H         -4.4180267670        2.2472791663       -0.7658817796
 H         -3.3228565245        2.8395077469       -2.0179211261
 H         -1.4530119911        2.8963105638       -0.5383923749
 H         -2.7189410799        3.2146930646        0.6589328408
 H         -3.3529313903        0.3276250616       -2.5058771509
 H         -2.6170207239       -1.4880961349        1.3469338646
48

Si                    3.09258621           1.39301008          -0.05576342         
C                     4.12060364           2.96642007           0.02019848         
H                     4.18559654           3.32946643           1.04987359         
H                     3.66825425           3.74954168          -0.59490873         
H                     5.13439062           2.78058117          -0.34596720         
C                     3.99780209           0.05447662           0.91475131         
H                     5.03781463          -0.02629681           0.58829294         
H                     3.51652543          -0.91687929           0.76593731         
H                     3.98731598           0.28723864           1.98355484         
C                     3.02748583           0.82253328          -1.85434933         
O                     1.40215259          -0.57739867           2.45930577         
H                     2.55022659          -0.15918025          -1.93237557         
H                     4.04054365           0.73976263          -2.26000875         
H                     2.46736248           1.53196384          -2.46982216         
C                     0.50271200          -0.90674897           1.70278863         
C                    -0.30296135          -2.15924684           1.86563570         
H                     0.27605504          -3.00617916           1.49096597         
H                    -0.55946380          -2.31305565           2.91818025         
C                     0.04706591          -0.15191698           0.50925514         
C                     0.47983080           1.03912019           0.05404067         
O                     1.57202144           1.67445279           0.60620736         
C                    -3.13664510           0.68735776           0.19082578         
C                    -1.11780708          -0.90036781          -0.10341371         
C                    -1.56462643          -1.85564801           1.04249878         
C                    -0.56532797          -1.68436729          -1.33215417         
O                    -0.20018413           1.74722869          -0.93308134         
C                    -2.27083450          -3.13838532           0.57984479         
C                    -1.41096250          -2.87948451          -1.74680936         
H                     0.44664351          -2.05535649          -1.11246108         
H                    -0.43987125          -1.03761250          -2.20776377         
C                    -1.57076795          -3.83746663          -0.57924931         
H                    -3.29236433          -2.88896918           0.26715430         
H                    -2.36264692          -3.83784072           1.41950303         
H                    -0.92062812          -3.39781992          -2.57964199         
H                    -2.39146163          -2.54820866          -2.10676868         
H                    -2.14944072          -4.71304752          -0.89334388         
H                    -0.58752592          -4.20989988          -0.26593807         
C                    -3.35361345           2.14051113          -0.10419319         
C                    -2.06162997           0.22037926          -0.46536799         
H                    -3.62122581           0.21368929           1.03365921         
C                    -1.47562548           1.26312473          -1.38297125         
C                    -2.52459606           2.37797332          -1.36259560         
H                    -3.18448839           2.28310103          -2.23488077         
H                    -2.08669776           3.38136914          -1.37913607         
H                    -2.96780164           2.74200224           0.72892575         
H                    -4.40720416           2.38786150          -0.25287522         
H                    -1.36296474           0.90059532          -2.41010860         
H                    -2.25492626          -1.34335616           1.72520496         
