  48
        -65.77712547
 Si         2.1030512896       -2.5289114661       -0.6739491018
 C          1.6994053109       -2.5848887548       -2.5328208599
 H          2.0187180972       -1.6754254859       -3.0362497587
 H          0.6295593235       -2.6894324080       -2.6891028317
 H          2.1902699237       -3.4203900549       -3.0213398708
 C          3.9352369217       -2.1445749323       -0.3525047184
 H          4.2602106395       -1.2527773405       -0.8798391871
 H          4.5557511138       -2.9677339726       -0.6881425491
 H          4.1315297616       -1.9917777201        0.7040914291
 C          1.4933840655       -4.0658755387        0.2596626887
 O         -1.1934637310       -0.8075362179        2.7067621201
 H          0.4242189840       -4.1984506303        0.1206508706
 H          1.6743500358       -3.9719300350        1.3274353206
 H          1.9894460343       -4.9680942723       -0.0833556171
 C         -1.3911026567       -0.0857935276        1.7687543393
 C         -2.6797482170        0.6122136006        1.4234824203
 H         -3.2529787689       -0.0872099342        0.8115554027
 H         -3.2637090457        0.8401248030        2.3147553019
 C         -0.3472360279        0.3134903960        0.7323654502
 C          0.0991668859       -0.9306422871        0.0110982198
 O          1.3918789569       -1.1543003636        0.0073048615
 C          0.6654065595        1.3549579164        1.3212857648
 C         -0.9871531756        1.4615791807       -0.1328993847
 C         -2.2884798027        1.8469549548        0.6083375389
 C         -1.2006688015        1.2572046264       -1.6271307060
 O         -0.6958291985       -1.6728804792       -0.5137439210
 C         -3.3694632694        2.3303815119       -0.3540421503
 C         -2.4984362865        0.5066847031       -1.9063660264
 H         -0.3551679143        0.7029241571       -2.0394162203
 H         -1.2206688043        2.2363079244       -2.1118094333
 C         -3.7238582024        1.3000549812       -1.4312252573
 H         -3.0071484713        3.2442438601       -0.8291579469
 H         -4.2661832687        2.5927942278        0.2110865905
 H         -2.4439888567       -0.4589993447       -1.4039994195
 H         -2.5780966143        0.3092994728       -2.9765193927
 H         -4.1735859702        1.8309659703       -2.2724596160
 H         -4.4803936117        0.6102402836       -1.0534563045
 C          2.1926940915        1.4030442456        1.2218647386
 C          0.2195640251        2.2801601598        0.2267629791
 H          0.3366671850        1.6410930449        2.3240218665
 C          1.1986108874        3.0258103664       -0.2516682903
 C          2.4406098512        2.7924864965        0.5823355550
 H          2.5462962625        3.5643669635        1.3504530325
 H          3.3413704781        2.8059763732       -0.0309460298
 H          2.5647846532        0.6254734729        0.5597651077
 H          2.6781459475        1.2983875064        2.1902648021
 H          1.1852057506        3.6924498167       -1.0949447735
 H         -2.0637724695        2.6625234218        1.3050934872
48

Si                    1.97038000          -2.88503000          -0.48226000         
C                     1.61604000          -2.78024000          -2.33034000         
H                     1.77776000          -1.76270000          -2.69839000         
H                     0.57908000          -3.06072000          -2.53738000         
H                     2.27386000          -3.45494000          -2.88592000         
C                     3.74617000          -2.33627000          -0.18454000         
H                     3.92314000          -1.33744000          -0.59348000         
H                     4.44479000          -3.02688000          -0.66604000         
H                     3.96612000          -2.31430000           0.88666000         
C                     1.83491000          -4.69286000           0.03367000         
O                    -1.96446000          -2.08290000           0.66340000         
H                     0.81970000          -5.06277000          -0.13665000         
H                     2.06947000          -4.80386000           1.09630000         
H                     2.53059000          -5.31036000          -0.54161000         
C                    -1.78920000          -0.87483000           0.68945000         
C                    -2.74828000           0.09980000           1.30056000         
H                    -3.76592000          -0.11997000           0.96952000         
H                    -2.69614000           0.01043000           2.39093000         
C                    -0.61598000          -0.16039000           0.14687000         
C                     0.63590000          -0.64774000           0.07130000         
O                     0.87592000          -1.97098000           0.39522000         
C                     0.53878000           2.87953000           1.32332000         
C                    -0.99120000           1.28526000          -0.06087000         
C                    -2.24420000           1.48814000           0.85067000         
C                    -1.32659000           1.55292000          -1.55792000         
O                     1.73239000           0.17066000          -0.18779000         
C                    -3.35464000           2.28879000           0.14921000         
C                    -2.69918000           1.03514000          -1.97657000         
H                    -0.58076000           1.08972000          -2.21721000         
H                    -1.28302000           2.63195000          -1.76199000         
C                    -3.82609000           1.66312000          -1.16447000         
H                    -2.98240000           3.30112000          -0.05582000         
H                    -4.21510000           2.41172000           0.81797000         
H                    -2.73192000          -0.05582000          -1.87064000         
H                    -2.86167000           1.23408000          -3.04261000         
H                    -4.32511000           2.43493000          -1.76301000         
H                    -4.59002000           0.90048000          -0.97003000         
C                     2.01560000           3.03691000           1.49856000         
C                     0.25689000           2.04096000           0.31825000         
H                    -0.16591000           3.26608000           2.04613000         
C                     1.49715000           1.56783000          -0.38960000         
C                     2.60988000           2.41018000           0.23670000         
H                     2.89326000           3.21576000          -0.45303000         
H                     3.51230000           1.83085000           0.45895000         
H                     2.34146000           2.49203000           2.39217000         
H                     2.30810000           4.08508000           1.60278000         
H                     1.46202000           1.75801000          -1.46793000         
H                    -1.98947000           2.04423000           1.76029000         
