  48
        -65.77931250
 Si         2.8689816583        1.8192145657        1.0023644723
 C          2.7067089033        3.4304756836        0.0009926404
 H          3.6169083671        4.0198206842        0.0429527164
 H          1.8963657611        4.0511138792        0.3755108024
 H          2.4984189678        3.2130994677       -1.0428699408
 C          2.9699265334        2.1311591601        2.8714286905
 H          3.8852604502        2.6560360801        3.1209350090
 H          2.9596598636        1.1975213096        3.4246077560
 H          2.1373653792        2.7313633366        3.2252511054
 C          4.2598500547        0.6995375667        0.3530477321
 O          1.3653455881       -2.1032014722        1.2144561396
 H          4.2286155781       -0.2700911207        0.8438352812
 H          5.2418198856        1.1289371647        0.5232515264
 H          4.1503842254        0.5294649860       -0.7145321380
 C          0.4962609797       -1.8970619052        0.4128271220
 C         -0.1297860460       -2.9052906797       -0.5188712073
 H          0.4993151709       -2.9334805544       -1.4136866803
 H         -0.1397895331       -3.9031121929       -0.0818268403
 C         -0.1834153837       -0.5604657082        0.1605494564
 C          0.9027955359        0.4319979645       -0.1616446384
 O          1.4216667072        0.9616061219        0.9224212293
 C         -1.2180905401       -0.1857184216        1.2751261915
 C         -1.3644675943       -0.8197139982       -0.8290110262
 C         -1.5161581269       -2.3596659171       -0.8639766113
 C         -1.3286186628       -0.2231884035       -2.2248522303
 O          1.2970620688        0.6580128911       -1.2774359483
 C         -2.0662069695       -2.8456485979       -2.2037682878
 C         -2.6246735022       -0.5229125571       -2.9873627988
 H         -0.4696578014       -0.6350377448       -2.7552938354
 H         -1.1771679248        0.8543968359       -2.1609833958
 C         -3.1859613722       -1.9087816443       -2.6450098199
 H         -2.4408259773       -3.8655492412       -2.0992063014
 H         -1.2800984363       -2.8560593232       -2.9604089209
 H         -2.4192001133       -0.4578190198       -4.0570703066
 H         -3.3722039664        0.2348169894       -2.7516091114
 H         -3.9067471299       -1.8249036746       -1.8290578873
 H         -3.7092160832       -2.3231435785       -3.5077986750
 C         -1.3714477797        1.1632507560        1.9781182894
 C         -2.2378429657       -0.1150528407        0.1719997733
 H         -1.3384354795       -1.0141706059        1.9763735659
 C         -3.1041347009        0.8678680934        0.3400575582
 C         -2.8497646192        1.5207090305        1.6827840167
 H         -3.5111824028        1.1118615093        2.4522029087
 H         -3.0112422323        2.5975542024        1.6396645718
 H         -0.7190223838        1.9100573318        1.5272735253
 H         -1.1542652174        1.1143553052        3.0430969504
 H         -3.8681132981        1.2124781176       -0.3329548805
 H         -2.2172585751       -2.6549332378       -0.0759189748
48

Si                    3.07292000           1.65824000           0.96551000         
C                     2.46187000           3.07940000          -0.10629000         
H                     3.21817000           3.86891000          -0.15482000         
H                     1.54616000           3.51531000           0.30335000         
H                     2.25880000           2.73783000          -1.12539000         
C                     3.29568000           2.29345000           2.72267000         
H                     4.03940000           3.09531000           2.75033000         
H                     3.63414000           1.48754000           3.38052000         
H                     2.35176000           2.68415000           3.11352000         
C                     4.77195000           1.15191000           0.31070000         
O                     2.31020000          -1.95291000          -0.73743000         
H                     5.17385000           0.32311000           0.90074000         
H                     5.47211000           1.99014000           0.36237000         
H                     4.69254000           0.82702000          -0.73104000         
C                     1.09562000          -1.86964000          -0.64086000         
C                     0.15326000          -3.01020000          -0.88749000         
H                     0.33393000          -3.39789000          -1.89380000         
H                     0.32330000          -3.79893000          -0.14837000         
C                     0.33923000          -0.64191000          -0.31084000         
C                     0.78385000           0.36329000           0.46496000         
O                     2.07611000           0.31811000           0.94996000         
C                    -2.86071000          -0.38331000           1.09792000         
C                    -1.08569000          -0.84299000          -0.75311000         
C                    -1.25388000          -2.39265000          -0.71576000         
C                    -1.30598000          -0.34970000          -2.20179000         
O                    -0.06345000           1.36184000           0.94255000         
C                    -2.21187000          -2.94240000          -1.79531000         
C                    -2.72718000          -0.63433000          -2.70069000         
H                    -0.59621000          -0.85167000          -2.87493000         
H                    -1.09268000           0.72048000          -2.31361000         
C                    -3.30338000          -1.95206000          -2.17815000         
H                    -2.66115000          -3.87730000          -1.44017000         
H                    -1.66032000          -3.20120000          -2.70855000         
H                    -2.71444000          -0.64636000          -3.79755000         
H                    -3.39828000           0.18495000          -2.41541000         
H                    -3.94172000          -1.75931000          -1.30875000         
H                    -3.95616000          -2.39109000          -2.94192000         
C                    -3.11389000           0.71603000           2.07810000         
C                    -1.90828000          -0.04167000           0.22141000         
H                    -3.29742000          -1.36662000           1.20509000         
C                    -1.40670000           1.35892000           0.44453000         
C                    -2.38672000           1.92037000           1.47664000         
H                    -3.12599000           2.55573000           0.97108000         
H                    -1.89928000           2.52551000           2.24787000         
H                    -2.68926000           0.44992000           3.05249000         
H                    -4.18184000           0.91484000           2.20347000         
H                    -1.44117000           1.97128000          -0.46327000         
H                    -1.63329000          -2.70758000           0.26539000         
