  48
        -65.80540173
 Si         3.3342941575        0.9137034311       -0.1602516544
 C          4.0377007753        2.5093493558       -0.9450099095
 H          5.1128201901        2.4372033460       -1.0712764521
 H          3.8389840820        3.3750274370       -0.3212011592
 H          3.6059494957        2.7084996110       -1.9214043404
 C          4.1747897981        0.6992937717        1.5299329821
 H          3.8914855628       -0.2284769694        2.0116130338
 H          3.9117237397        1.5186393903        2.1931068355
 H          5.2536426955        0.7045477695        1.4137210734
 C          3.5260915498       -0.4717577703       -1.4548947292
 O          2.1386039038       -1.3455661803        0.9233487916
 H          3.6411715181       -1.4424831212       -0.9867395141
 H          4.3918263025       -0.2995409281       -2.0867186249
 H          2.6508498565       -0.5192997233       -2.0979524196
 C          0.9524244333       -1.3812893086        0.6428989273
 C          0.0460943123       -2.5802662066        0.8711639707
 H          0.2987552079       -3.3345880649        0.1216114533
 H          0.2298258055       -3.0216499320        1.8500134767
 C          0.1600632926       -0.3386099584        0.0695251159
 C          0.5447969648        0.9534609560       -0.1029745575
 O          1.7508965698        1.4267182824        0.0422287955
 C         -3.0536161702        0.5376632581        1.1757884823
 C         -1.2688913864       -0.7888212347       -0.1527818879
 C         -1.3926831485       -2.0768630437        0.6948246548
 C         -1.5134498622       -1.1318125198       -1.6319943362
 O         -0.3110289308        1.9344734816       -0.4460591165
 C         -2.3171480034       -3.1135489674        0.0474289708
 C         -2.9566184850       -1.5919185327       -1.8557399453
 H         -0.8171036897       -1.9235071606       -1.9125607167
 H         -1.2918613316       -0.2692379501       -2.2624296980
 C         -3.4718539746       -2.4314061892       -0.6789780158
 H         -2.7034537296       -3.7881364971        0.8135725077
 H         -1.7599769024       -3.7202322063       -0.6691534756
 H         -2.9988613743       -2.1739627765       -2.7782834836
 H         -3.6038157123       -0.7227724080       -1.9860677528
 H         -4.0023011253       -1.7909317764        0.0256066358
 H         -4.1782521937       -3.1809682390       -1.0393081197
 C         -3.4794264684        1.9689761197        1.3143625577
 C         -2.0978029475        0.3785576378        0.2724001937
 H         -3.5222643015       -0.2372101307        1.7562883061
 C         -1.7149964579        1.7034116426       -0.3456494072
 C         -2.3740035375        2.7413057890        0.5789979916
 H         -2.7498654175        3.6019438319        0.0309657831
 H         -1.6188759477        3.0871522070        1.2852033511
 H         -3.5743742730        2.2681772246        2.3587635744
 H         -4.4511986876        2.1211922607        0.8363478034
 H         -2.1109243572        1.7796695650       -1.3686004842
 H         -1.7917380913       -1.8014788515        1.6743426820
48

Si                    3.54891000           0.04787000           0.15359000         
C                     3.67393000           1.68024000          -0.77352000         
H                     4.63054000           1.75114000          -1.29902000         
H                     3.61049000           2.52251000          -0.07810000         
H                     2.87352000           1.77177000          -1.51311000         
C                     5.01990000          -0.01041000           1.34447000         
H                     5.06492000          -0.97979000           1.84848000         
H                     4.91955000           0.77164000           2.10316000         
H                     5.95720000           0.14844000           0.80379000         
C                     3.77112000          -1.33524000          -1.10129000         
O                     2.13464000          -0.09874000           1.04412000         
H                     3.79317000          -2.31031000          -0.60727000         
H                     4.71406000          -1.20328000          -1.64172000         
H                     2.95797000          -1.33183000          -1.83277000         
C                     0.94052000          -0.43717000           0.46807000         
C                     0.42679000          -1.83437000           0.64511000         
H                     0.79596000          -2.47199000          -0.16559000         
H                     0.72912000          -2.27100000           1.60233000         
C                    -0.01478000           0.38812000           0.00434000         
C                     0.04838000           1.86286000          -0.05587000         
O                     1.02912000           2.51340000           0.27572000         
C                    -3.32309000           0.51130000           1.18112000         
C                    -1.31225000          -0.33744000          -0.24215000         
C                    -1.10330000          -1.63239000           0.59901000         
C                    -1.51843000          -0.73694000          -1.72016000         
O                    -1.04629000           2.48560000          -0.55839000         
C                    -1.83014000          -2.87745000           0.05844000         
C                    -2.77534000          -1.59700000          -1.91734000         
H                    -0.65075000          -1.31288000          -2.07236000         
H                    -1.56939000           0.13669000          -2.38165000         
C                    -3.08072000          -2.52467000          -0.73785000         
H                    -2.09818000          -3.53261000           0.89630000         
H                    -1.16710000          -3.46747000          -0.58627000         
H                    -2.65008000          -2.19382000          -2.82914000         
H                    -3.64578000          -0.95354000          -2.09529000         
H                    -3.81256000          -2.04949000          -0.07467000         
H                    -3.56318000          -3.43791000          -1.10583000         
C                    -4.04759000           1.80979000           1.34881000         
C                    -2.38945000           0.59452000           0.22380000         
H                    -3.52023000          -0.35122000           1.80254000         
C                    -2.36527000           1.95554000          -0.39489000         
C                    -3.13795000           2.79489000           0.61952000         
H                    -3.70414000           3.59780000           0.13577000         
H                    -2.45089000           3.27939000           1.32701000         
H                    -4.14940000           2.08457000           2.40267000         
H                    -5.04089000           1.75780000           0.89297000         
H                    -2.86354000           1.95176000          -1.37074000         
H                    -1.44291000          -1.46597000           1.63157000         
