  48
        -65.81009445
 Si         3.3490398218        0.8626720459       -0.2300357704
 C          3.5335360654       -0.7024388878       -1.3016102018
 H          2.7052617644       -0.7888464297       -2.0005944059
 H          3.5480495810       -1.6013936905       -0.6963251832
 H          4.4516567011       -0.6732289104       -1.8799848702
 C          4.1080284279        2.3134051543       -1.2170246297
 H          5.1836469162        2.2017325500       -1.3042037813
 H          3.9161904772        3.2637149471       -0.7290253279
 H          3.7029221437        2.3786084521       -2.2225120677
 C          4.1455469841        0.8680119761        1.4945870807
 O          2.0642165785       -1.2066003370        1.1665062529
 H          3.8858630818        1.7759066207        2.0319082475
 H          5.2267581358        0.8351919838        1.4084563479
 H          3.8288127791        0.0213930807        2.0914069255
 C          0.8726413621       -1.2214399561        0.9123400431
 C         -0.1061823169       -2.2863070905        1.3869649675
 H          0.0024571340       -3.1664907600        0.7505756336
 H          0.1109141986       -2.5882619863        2.4108949404
 C          0.1248551113       -0.2612334970        0.1538274085
 C          0.5577044615        0.9601288608       -0.2491394588
 O          1.7736384919        1.4230293167       -0.1408778131
 C         -3.2390932980        0.8701190706        0.6615882591
 C         -1.3140255119       -0.7169290351        0.0034328113
 C         -1.4875444058       -1.6421423885        1.2267000354
 C         -1.4659299129       -1.5000809368       -1.3175315496
 O         -0.2485644373        1.8899099334       -0.7967588720
 C         -2.6491876626       -2.6303186765        1.1312629620
 C         -2.7523719531       -2.3148881042       -1.3409666301
 H         -0.6120935528       -2.1721786399       -1.4259974879
 H         -1.4413039858       -0.8030300840       -2.1572647028
 C         -2.7248791704       -3.3410859699       -0.2152223010
 H         -3.5844373879       -2.0880607486        1.2846429148
 H         -2.5564388722       -3.3624727762        1.9367294513
 H         -2.8519425840       -2.8164039152       -2.3057094257
 H         -3.6097874671       -1.6503133301       -1.2124939138
 H         -3.6223977261       -3.9618666618       -0.2466164904
 H         -1.8637153588       -3.9993027561       -0.3462705452
 C         -3.6554157445        2.2810561843        0.3701658221
 C         -2.1493420071        0.5167940274       -0.0030890981
 H         -3.8066197164        0.2476692620        1.3299696350
 C         -1.6514391926        1.6519903589       -0.8672039374
 C         -2.4343783898        2.8710325642       -0.3522127365
 H         -2.7052217250        3.5554082430       -1.1524587309
 H         -1.7958762575        3.4028750580        0.3532192748
 H         -3.9079065274        2.8290008661        1.2785601246
 H         -4.5371803300        2.2875599544       -0.2765609015
 H         -1.8810287058        1.4543238847       -1.9253938060
 H         -1.6570722299       -1.0005150793        2.0992262904
48

Si                    3.49487000           0.04611000           0.27816000         
C                     3.62430000          -1.53536000          -0.73261000         
H                     2.81658000          -1.59480000          -1.46778000         
H                     3.57396000          -2.41576000          -0.08623000         
H                     4.57665000          -1.55960000          -1.27193000         
C                     3.73410000           1.49522000          -0.89814000         
H                     4.71287000           1.43884000          -1.38313000         
H                     3.68169000           2.44331000          -0.35455000         
H                     2.96904000           1.49383000          -1.67957000         
C                     4.95462000           0.08259000           1.48265000         
O                     2.06750000           0.14457000           1.15549000         
H                     4.90085000           0.97617000           2.11174000         
H                     5.90155000           0.10011000           0.93548000         
H                     4.93933000          -0.79936000           2.12888000         
C                     0.87209000          -0.27564000           0.64024000         
C                     0.28790000          -1.57151000           1.13417000         
H                     0.58286000          -2.40158000           0.48420000         
H                     0.58980000          -1.79865000           2.16149000         
C                    -0.04550000           0.45056000          -0.02857000         
C                     0.05730000           1.86642000          -0.42399000         
O                     1.04238000           2.55668000          -0.19542000         
C                    -3.51845000           0.81633000           0.70537000         
C                    -1.34234000          -0.30738000          -0.15892000         
C                    -1.21889000          -1.25561000           1.06592000         
C                    -1.38720000          -1.11497000          -1.48304000         
O                    -0.99577000           2.38956000          -1.09639000         
C                    -2.12493000          -2.48948000           1.03588000         
C                    -2.44486000          -2.21735000          -1.45170000         
H                    -0.41309000          -1.58161000          -1.68514000         
H                    -1.57828000          -0.46237000          -2.34357000         
C                    -2.17562000          -3.19453000          -0.31386000         
H                    -3.14576000          -2.18193000           1.29499000         
H                    -1.81668000          -3.20095000           1.81119000         
H                    -2.43713000          -2.75955000          -2.40420000         
H                    -3.44531000          -1.78181000          -1.34329000         
H                    -2.96060000          -3.95989000          -0.29483000         
H                    -1.23020000          -3.71921000          -0.49401000         
C                    -4.25626000           2.08900000           0.43461000         
C                    -2.45071000           0.69238000          -0.09382000         
H                    -3.81588000           0.12375000           1.48005000         
C                    -2.32272000           1.85774000          -1.02045000         
C                    -3.24831000           2.89230000          -0.38279000         
H                    -3.73773000           3.51813000          -1.13668000         
H                    -2.68187000           3.57245000           0.26809000         
H                    -4.51236000           2.61449000           1.35914000         
H                    -5.17187000           1.88924000          -0.13029000         
H                    -2.65617000           1.60095000          -2.03190000         
H                    -1.46536000          -0.70598000           1.98902000         
