  48
        -65.80418626
 Si         3.4427268711        0.2206433957        0.0379402097
 C          4.6978153578       -1.0927565785       -0.4934826475
 H          4.3150510866       -2.0842077128       -0.2732598679
 H          5.6405216080       -0.9698454319        0.0287862420
 H          4.8992096284       -1.0454222472       -1.5591432749
 C          3.9507674518        1.9937500641       -0.4506545490
 H          3.1505795804        2.7049678965       -0.2635599142
 H          4.1906827314        2.0513339436       -1.5085475182
 H          4.8238211666        2.3259441229        0.1016535107
 C          2.9925906259        0.1415492750        1.8869656617
 O          1.2805174622       -2.6044896743        0.5398878177
 H          2.6271501405       -0.8520032264        2.1308877519
 H          2.2061671439        0.8502597805        2.1373061054
 H          3.8416090616        0.3520217163        2.5290946567
 C          0.2040460733       -2.0624429447        0.3967230125
 C         -1.1169286800       -2.5913042180        0.9404602433
 H         -1.4375777741       -3.4061432121        0.2865961533
 H         -0.9846861563       -3.0077665907        1.9382794065
 C         -0.0827821388       -0.8062798080       -0.2537409033
 C          0.8394566386        0.0764358332       -0.7033076167
 O          2.1069265224       -0.2323037667       -0.8458352784
 C         -2.1029059993        1.7007733039        1.1422723314
 C         -1.5534462828       -0.4596570026       -0.1750919094
 C         -2.1096465277       -1.4225730937        0.8995018977
 C         -2.2595228914       -0.7339345267       -1.5132992026
 O          0.5608911960        1.3467848460       -1.0554340422
 C         -3.5459188054       -1.8647870413        0.5985462252
 C         -3.7471186135       -0.3815745412       -1.4289349314
 H         -2.1343570569       -1.7917784208       -1.7477749056
 H         -1.7833822845       -0.1683802698       -2.3156067606
 C         -4.3365543379       -0.7371909419       -0.0572530382
 H         -4.0346550457       -2.1746618308        1.5240131655
 H         -3.5414989485       -2.7268861445       -0.0712060494
 H         -4.2786572544       -0.9192167821       -2.2163078054
 H         -3.8831534031        0.6860433704       -1.6112250916
 H         -4.3094933188        0.1372817953        0.5928685512
 H         -5.3811433099       -1.0327915203       -0.1678060364
 C         -1.7277750245        3.1516226458        1.0855487256
 C         -1.5715118524        0.9983617144        0.1525387823
 H         -2.7561399828        1.3296422334        1.9120215998
 C         -0.7247162348        1.8791282381       -0.7382363671
 C         -0.5802170630        3.1834345192        0.0650893456
 H         -0.6040061894        4.0643753762       -0.5720144442
 H          0.3822230167        3.1567629662        0.5772524863
 H         -1.4296363492        3.5361306146        2.0617461440
 H         -2.5778526148        3.7470443470        0.7410694413
 H         -1.2328703473        2.0590024015       -1.6963850884
 H         -2.0862777104       -0.9074234587        1.8634131837
48

Si                    3.15610000          -0.77945000           0.48166000         
C                     4.77877000          -1.70259000           0.21172000         
H                     4.69484000          -2.73456000           0.56428000         
H                     5.59274000          -1.21505000           0.75612000         
H                     5.03483000          -1.71950000          -0.85165000         
C                     3.42896000           1.01316000          -0.02062000         
H                     2.53962000           1.61620000           0.18322000         
H                     3.66368000           1.08442000          -1.08637000         
H                     4.26458000           1.44302000           0.53970000         
C                     2.78492000          -0.80030000           2.33027000         
O                     1.93436000          -1.52025000          -0.40570000         
H                     2.64832000          -1.82602000           2.68415000         
H                     1.87570000          -0.23238000           2.54838000         
H                     3.61121000          -0.34989000           2.88851000         
C                     0.63058000          -1.13823000          -0.24798000         
C                    -0.26905000          -1.94871000           0.62639000         
H                    -0.46760000          -2.91921000           0.15951000         
H                     0.16107000          -2.12262000           1.61751000         
C                    -0.02878000          -0.15678000          -0.88004000         
C                     0.53072000           0.80268000          -1.83962000         
O                     1.43656000           0.51598000          -2.60962000         
C                    -2.09246000           1.99992000           1.01844000         
C                    -1.45911000          -0.05042000          -0.45157000         
C                    -1.52759000          -1.06411000           0.73576000         
C                    -2.42511000          -0.48777000          -1.57381000         
O                     0.00522000           2.05299000          -1.80075000         
C                    -2.81215000          -1.91026000           0.76684000         
C                    -3.87901000          -0.56174000          -1.09634000         
H                    -2.13085000          -1.47959000          -1.94621000         
H                    -2.36886000           0.17501000          -2.44684000         
C                    -4.02829000          -1.10516000           0.32644000         
H                    -2.96818000          -2.30075000           1.77937000         
H                    -2.71732000          -2.78565000           0.11170000         
H                    -4.44127000          -1.19583000          -1.79281000         
H                    -4.34384000           0.43031000          -1.14967000         
H                    -4.18239000          -0.27194000           1.02225000         
H                    -4.93111000          -1.72398000           0.38763000         
C                    -1.97028000           3.48669000           0.90758000         
C                    -1.65545000           1.39118000          -0.09305000         
H                    -2.46480000           1.51116000           1.90812000         
C                    -1.21108000           2.38906000          -1.11834000         
C                    -1.01514000           3.64717000          -0.27343000         
H                    -1.21657000           4.55992000          -0.84380000         
H                     0.02285000           3.71949000           0.07966000         
H                    -1.54921000           3.92915000           1.81495000         
H                    -2.94776000           3.93703000           0.70824000         
H                    -1.99197000           2.54587000          -1.87124000         
H                    -1.46211000          -0.53048000           1.69357000         
