  48
        -65.81053171
 Si         3.5755507362       -0.2251913543       -0.1262391229
 C          3.8762974409        0.4144102330       -1.8963300803
 H          4.9100827082        0.7118229467       -2.0395229454
 H          3.2513030241        1.2744523117       -2.1191263500
 H          3.6514525468       -0.3548409268       -2.6302560149
 C          3.8472022183        1.1712838591        1.1441069417
 H          4.9021977847        1.3983303614        1.2593444466
 H          3.4641321504        0.8881789947        2.1210543012
 H          3.3458711080        2.0870066170        0.8441204592
 C          4.5994360689       -1.7687423529        0.2734473145
 O          0.2866943703       -3.0804420591        0.6860207214
 H          5.6619280051       -1.5589088353        0.2125128270
 H          4.3767448181       -2.5757091479       -0.4170043306
 H          4.3866613742       -2.1333402920        1.2731759539
 C         -0.5243770724       -2.1954301001        0.5263391585
 C         -2.0162799372       -2.3067316408        0.8300058103
 H         -2.4933257831       -2.8613336402        0.0202764549
 H         -2.1822135195       -2.8607209763        1.7531334417
 C         -0.3018880109       -0.8474008032        0.0416565888
 C          0.8900361731       -0.2337320902       -0.1326184259
 O          2.0354689185       -0.8525039697        0.0064869273
 C         -1.9477712808        2.2007117692        0.9585120495
 C         -1.6228131525       -0.1214916958       -0.1178408991
 C         -2.5197970854       -0.8613886906        0.8961140275
 C         -2.1396167592       -0.3067393099       -1.5600844241
 O          1.0297880077        1.0728937032       -0.4461024831
 C         -4.0222472636       -0.6953942776        0.6704797870
 C         -3.6158620893        0.0497111576       -1.6754222224
 H         -1.9959613223       -1.3489307597       -1.8514133249
 H         -1.5453579026        0.3063657532       -2.2402646020
 C         -4.4345248993       -0.8774091025       -0.7858434024
 H         -4.3169685433        0.3074239954        0.9867559810
 H         -4.5544378652       -1.4102840048        1.3021961334
 H         -3.9363912827       -0.0457705226       -2.7148491252
 H         -3.7685803756        1.0863330991       -1.3659295929
 H         -5.4993888298       -0.6601156416       -0.8905739956
 H         -4.2763447307       -1.9113120341       -1.0985123759
 C         -1.2330637317        3.5192083365        0.9796904843
 C         -1.3532770642        1.3148932322        0.1733094013
 H         -2.8508630029        2.0467051378        1.5211921437
 C         -0.1235788973        1.9096914198       -0.4744801694
 C          0.1205941993        3.1982542147        0.3280574804
 H          0.4957360629        4.0084710585       -0.2929955732
 H          0.8637050304        2.9779576578        1.0949676269
 H         -1.1262910984        3.9120408281        1.9913637634
 H         -1.7871263247        4.2578254018        0.3937516922
 H         -0.3225958277        2.1360523448       -1.5331640025
 H         -2.2795552790       -0.4703554364        1.8917294482
48

Si                    3.02435000          -1.20251000           0.15836000         
C                     3.88192000          -0.54994000          -1.38527000         
H                     4.96872000          -0.59249000          -1.27132000         
H                     3.61320000           0.49308000          -1.57129000         
H                     3.60568000          -1.14875000          -2.25811000         
C                     2.93206000           0.19006000           1.42497000         
H                     3.92910000           0.60817000           1.59705000         
H                     2.54815000          -0.18018000           2.37989000         
H                     2.28272000           0.99954000           1.08072000         
C                     4.18941000          -2.51699000           0.87236000         
O                     1.52949000          -1.88902000          -0.18294000         
H                     5.19373000          -2.09890000           0.99426000         
H                     4.25171000          -3.37476000           0.19698000         
H                     3.83433000          -2.85883000           1.84801000         
C                     0.34369000          -1.20729000          -0.15188000         
C                    -0.81411000          -1.84097000           0.56612000         
H                    -1.25675000          -2.63566000          -0.04309000         
H                    -0.51677000          -2.25815000           1.53408000         
C                    -0.03791000          -0.06128000          -0.74020000         
C                     0.70312000           0.81813000          -1.64620000         
O                     1.32264000           0.41368000          -2.61664000         
C                    -2.01084000           2.42552000           0.97884000         
C                    -1.45671000           0.31685000          -0.42247000         
C                    -1.76205000          -0.64308000           0.76346000         
C                    -2.33106000           0.04786000          -1.66980000         
O                     0.67768000           2.11960000          -1.27148000         
C                    -3.23651000          -1.02605000           0.94256000         
C                    -3.80501000          -0.13079000          -1.33642000         
H                    -1.99013000          -0.86219000          -2.18480000         
H                    -2.22787000           0.85667000          -2.40509000         
C                    -3.98420000          -1.28433000          -0.36006000         
H                    -3.74815000          -0.20687000           1.46382000         
H                    -3.32307000          -1.90289000           1.59496000         
H                    -4.36293000          -0.33986000          -2.25664000         
H                    -4.21638000           0.79412000          -0.91592000         
H                    -5.05131000          -1.42069000          -0.14948000         
H                    -3.63008000          -2.21647000          -0.81625000         
C                    -1.55727000           3.85054000           1.02691000         
C                    -1.44075000           1.76765000          -0.04138000         
H                    -2.67939000           1.99961000           1.71403000         
C                    -0.56632000           2.68417000          -0.84956000         
C                    -0.31254000           3.81723000           0.14365000         
H                    -0.12979000           4.77330000          -0.35687000         
H                     0.58006000           3.60503000           0.74984000         
H                    -1.30774000           4.16376000           2.04464000         
H                    -2.32835000           4.51380000           0.62310000         
H                    -1.09846000           3.05188000          -1.73453000         
H                    -1.44911000          -0.17511000           1.71058000         
