  48
        -65.80518700
 Si         3.0972654675        1.1831770131       -0.0585309261
 C          3.7716249725        1.5561757425        1.6774195282
 H          3.4909184480        0.7979612744        2.3978914516
 H          3.3995053173        2.5132860568        2.0317894625
 H          4.8547873813        1.6143691700        1.6511280185
 C          3.4712103131       -0.5102456837       -0.8511942560
 H          2.6474980388       -0.8256401183       -1.4868318235
 H          3.6184718942       -1.2791415465       -0.1016013424
 H          4.3648825024       -0.4662173066       -1.4658670116
 C          3.8186130353        2.5076129069       -1.2353532062
 O          1.8923877372       -0.6921945841        1.5427529037
 H          3.4816194715        2.3725599663       -2.2589638568
 H          4.9029256839        2.4716022746       -1.2405205915
 H          3.5261347818        3.5066765562       -0.9282081640
 C          0.7518504113       -0.9146653212        1.1706249306
 C         -0.1379656718       -2.0101702821        1.7322808779
 H          0.2785105529       -2.9793053040        1.4584407992
 H         -0.1369036586       -1.9591125350        2.8216578256
 C          0.0028329588       -0.1948223348        0.1882087376
 C          0.3351645225        1.0262450210       -0.3075353727
 O          1.4820520628        1.6283958301       -0.1574695971
 C         -3.4518332300        0.5884223669        0.4630107090
 C         -1.3485053211       -0.8272951530       -0.0617711878
 C         -1.5357396482       -1.7887854600        1.1359915866
 C         -1.3647967800       -1.5907279619       -1.4061307455
 O         -0.5169410895        1.7945363931       -1.0125148797
 C         -2.2363517755       -3.0799203925        0.7212622790
 C         -0.6690820094       -2.9378941098       -1.2741211803
 H         -0.8633640210       -0.9864790611       -2.1648499839
 H         -2.3992779064       -1.7407325297       -1.7241371129
 C         -1.4569317078       -3.8651096165       -0.3420101477
 H         -3.2213177612       -2.8157814486        0.3309198116
 H         -2.3927121064       -3.7080962475        1.6003501340
 H          0.3386275550       -2.7712249871       -0.8902237985
 H         -0.5704081520       -3.4009333504       -2.2578082711
 H         -2.1667893205       -4.4554507373       -0.9245658644
 H         -0.7730472199       -4.5705923122        0.1326333586
 C         -3.9831871082        1.9408120527        0.0877530189
 C         -2.3064821817        0.3145037147       -0.1428269044
 H         -3.9891427896       -0.0573184432        1.1347323940
 C         -1.8970959972        1.4442699944       -1.0585577155
 C         -2.7848411249        2.6127131916       -0.6003074628
 H         -3.0748327357        3.2604475394       -1.4239724386
 H         -2.2170707302        3.2030600886        0.1192608132
 H         -4.3334979286        2.4993949169        0.9562392106
 H         -4.8249533411        1.8370770955       -0.6025034441
 H         -2.1108025651        1.1762129633       -2.1041402465
 H         -2.1542790713       -1.2837379513        1.8833049598
48

Si                    3.32482000           0.51133000           0.55529000         
C                     4.64511000           0.90671000           1.85153000         
H                     4.66271000           0.13656000           2.62749000         
H                     4.43266000           1.87101000           2.32291000         
H                     5.63377000           0.95878000           1.38651000         
C                     3.74096000          -1.16008000          -0.20212000         
H                     3.01424000          -1.42887000          -0.97417000         
H                     3.74597000          -1.94304000           0.56094000         
H                     4.73178000          -1.12591000          -0.66617000         
C                     3.50083000           1.80563000          -0.80004000         
O                     1.81581000           0.53318000           1.29229000         
H                     2.81320000           1.60182000          -1.62569000         
H                     4.51860000           1.80680000          -1.20042000         
H                     3.29336000           2.80491000          -0.40562000         
C                     0.73709000          -0.10468000           0.74154000         
C                     0.28194000          -1.39579000           1.35135000         
H                     0.84172000          -2.24020000           0.94037000         
H                     0.41443000          -1.39956000           2.43874000         
C                    -0.18127000           0.40111000          -0.10129000         
C                    -0.20223000           1.77544000          -0.64377000         
O                     0.67874000           2.59798000          -0.43552000         
C                    -3.67029000           0.45288000           0.47191000         
C                    -1.36840000          -0.51444000          -0.26551000         
C                    -1.22025000          -1.41035000           0.99859000         
C                    -1.33615000          -1.34440000          -1.58021000         
O                    -1.25441000           2.09600000          -1.43506000         
C                    -1.79551000          -2.81261000           0.80659000         
C                    -0.61088000          -2.68179000          -1.46727000         
H                    -0.87639000          -0.76435000          -2.39119000         
H                    -2.36281000          -1.56173000          -1.90863000         
C                    -1.19796000          -3.57508000          -0.37600000         
H                    -2.87872000          -2.72391000           0.64955000         
H                    -1.67199000          -3.40400000           1.72182000         
H                     0.45429000          -2.50933000          -1.27863000         
H                    -0.65926000          -3.21135000          -2.42652000         
H                    -1.98023000          -4.21374000          -0.80605000         
H                    -0.41821000          -4.26003000          -0.02135000         
C                    -4.50588000           1.63778000           0.09949000         
C                    -2.57236000           0.37580000          -0.29169000         
H                    -3.92624000          -0.21183000           1.28527000         
C                    -2.53488000           1.47315000          -1.30613000         
C                    -3.54375000           2.47117000          -0.74385000         
H                    -4.06001000           3.02020000          -1.53832000         
H                    -3.03949000           3.22310000          -0.12106000         
H                    -4.83269000           2.19745000           0.98065000         
H                    -5.38348000           1.32472000          -0.47409000         
H                    -2.84351000           1.10592000          -2.29144000         
H                    -1.74599000          -0.95417000           1.85030000         
