  48
        -65.80558116
 Si         3.5565341131       -0.0055240415       -0.1818034997
 C          3.7684805409        0.6790896271       -1.9476677972
 H          3.0704126624        1.4875587380       -2.1454195884
 H          3.5918298450       -0.0964199144       -2.6881846533
 H          4.7712420870        1.0621571606       -2.1069940929
 C          3.7532918493        1.3900810755        1.1034724947
 H          3.3983097806        1.0724307672        2.0805007542
 H          3.1951912734        2.2776178676        0.8191660993
 H          4.7937400745        1.6792214252        1.2120410031
 C          4.6978401742       -1.4751824015        0.1753822469
 O          0.5142319855       -3.0827656597        0.7124527674
 H          4.5309944288       -2.2815542617       -0.5313662602
 H          4.5216952650       -1.8767011078        1.1681010860
 H          5.7408855112       -1.1842544303        0.1116101501
 C         -0.3741234633       -2.2890805905        0.4920799547
 C         -1.8597044523       -2.5663285149        0.6942883885
 H         -2.1835591059       -3.2283775824       -0.1124988984
 H         -2.0255755232       -3.0938470174        1.6327191368
 C         -0.2625871729       -0.9297420458        0.0119871352
 C          0.8778053240       -0.2170057762       -0.1427566579
 O          2.0689443494       -0.7462835247       -0.0313527592
 C         -2.0405461739        1.8035351716        1.2939457557
 C         -1.6243665247       -0.2931390057       -0.1683644365
 C         -2.5781656498       -1.2130313992        0.6271504476
 C         -2.0424790299       -0.2945750879       -1.6485087967
 O          0.9014601674        1.1024688153       -0.4311020806
 C         -3.9689193062       -1.3023568653       -0.0115767232
 C         -3.4181543278        0.3536500701       -1.8283402337
 H         -2.0653893560       -1.3304877764       -1.9891057143
 H         -1.2985748264        0.2264196189       -2.2532416968
 C         -4.3568655832        0.0223152078       -0.6605445481
 H         -4.7035825615       -1.5757015097        0.7479094345
 H         -3.9831830638       -2.0839607396       -0.7736819009
 H         -3.8500758995        0.0024181500       -2.7673547642
 H         -3.3083689780        1.4372096360       -1.9028266894
 H         -4.3044706423        0.8117385800        0.0892146902
 H         -5.3874756207       -0.0265516008       -1.0159859416
 C         -1.3962386432        3.1419338409        1.5026848240
 C         -1.4510800370        1.1013498909        0.3374084568
 H         -2.8983312546        1.5062374115        1.8705601119
 C         -0.2895717207        1.8683142247       -0.2528749675
 C         -0.0632256622        3.0112199855        0.7514340034
 H          0.2444922377        3.9348169758        0.2661648246
 H          0.7247693849        2.7022372147        1.4389475047
 H         -1.2591515597        3.3714133632        2.5599523888
 H         -2.0166961645        3.9314328213        1.0692503032
 H         -0.5535773573        2.2626031786       -1.2448585111
 H         -2.6714352248       -0.8125155686        1.6399120275
48

Si                    3.12328000          -1.04979000           0.02063000         
C                     4.16026000          -0.27379000          -1.34607000         
H                     3.81963000           0.74100000          -1.56736000         
H                     4.09343000          -0.87052000          -2.26064000         
H                     5.21110000          -0.21676000          -1.04828000         
C                     2.82508000           0.24356000           1.35604000         
H                     2.28267000          -0.19093000           2.20073000         
H                     2.24645000           1.08702000           0.96959000         
H                     3.77940000           0.63144000           1.72559000         
C                     4.17876000          -2.41708000           0.79389000         
O                     1.70904000          -1.71352000          -0.59462000         
H                     4.37207000          -3.20749000           0.06310000         
H                     3.66791000          -2.85415000           1.65626000         
H                     5.13862000          -2.01093000           1.12725000         
C                     0.47716000          -1.14992000          -0.40943000         
C                    -0.55480000          -1.94974000           0.31767000         
H                    -0.82996000          -2.83261000          -0.26862000         
H                    -0.18744000          -2.28269000           1.29448000         
C                    -0.02449000           0.00153000          -0.88098000         
C                     0.66320000           1.02705000          -1.67220000         
O                     1.44189000           0.75809000          -2.57423000         
C                    -1.96025000           2.05989000           1.29037000         
C                    -1.45041000           0.22881000          -0.48449000         
C                    -1.72228000          -0.95669000           0.49423000         
C                    -2.38673000           0.13759000          -1.70981000         
O                     0.41637000           2.30584000          -1.29169000         
C                    -3.08487000          -1.64059000           0.28355000         
C                    -3.86716000           0.16104000          -1.32165000         
H                    -2.18624000          -0.79517000          -2.25668000         
H                    -2.19549000           0.94115000          -2.43283000         
C                    -4.17684000          -0.63121000          -0.05027000         
H                    -3.35703000          -2.19984000           1.18645000         
H                    -3.02861000          -2.37660000          -0.52866000         
H                    -4.45121000          -0.24263000          -2.15797000         
H                    -4.20577000           1.19592000          -1.19004000         
H                    -4.29940000           0.06159000           0.79064000         
H                    -5.13916000          -1.14348000          -0.16596000         
C                    -1.63674000           3.50903000           1.47328000         
C                    -1.48439000           1.59817000           0.12511000         
H                    -2.49452000           1.48375000           2.03315000         
C                    -0.80780000           2.68799000          -0.65159000         
C                    -0.53751000           3.72729000           0.43570000         
H                    -0.54130000           4.74788000           0.03925000         
H                     0.45197000           3.56840000           0.88659000         
H                    -1.27276000           3.72138000           2.48251000         
H                    -2.51826000           4.12591000           1.27148000         
H                    -1.47972000           3.09463000          -1.41617000         
H                    -1.69096000          -0.60615000           1.53459000         
