  48
        -65.80900083
 Si         3.4461468338        0.1892081926        0.0792145381
 C          4.1071083850        1.9777936415        0.0127258780
 H          4.3579826145        2.2609751073       -1.0054601772
 H          5.0020151750        2.0953380463        0.6152497375
 H          3.3698201103        2.6903842536        0.3731187186
 C          2.9341074097       -0.2578034491        1.8585806734
 H          2.1495907562        0.4020158960        2.2225854471
 H          3.7643911879       -0.1971095313        2.5544941555
 H          2.5486762315       -1.2727192003        1.8877692247
 C          4.6108474990       -1.0738788771       -0.7150799132
 O          1.3108863789       -2.5704074287       -0.1466144849
 H          4.8518921103       -0.8048089473       -1.7388057118
 H          4.1401541988       -2.0517336375       -0.7321089568
 H          5.5419501135       -1.1539509964       -0.1643675110
 C          0.2423586008       -1.9993067734       -0.0759028306
 C         -1.0477447906       -2.6138351937        0.4563192696
 H         -1.5040935920       -3.2029532379       -0.3409692354
 H         -0.8460553625       -3.2838658621        1.2912392059
 C         -0.0617298596       -0.6243211633       -0.4055035933
 C          0.8419202470        0.3423392639       -0.6825574488
 O          2.1106630371        0.0893435820       -0.9082414142
 C         -2.2617002893        1.6490122761        1.2827880270
 C         -1.5339310344       -0.3382253886       -0.1922507995
 C         -1.9236684335       -1.4166307898        0.8408692525
 C         -2.2930600762       -0.5333018918       -1.5213538717
 O          0.5532737347        1.6570382963       -0.7493016245
 C         -3.4191588551       -1.7188933025        0.9287316633
 C         -3.7942356823       -0.6576459433       -1.2971059349
 H         -1.9240645862       -1.4401039891       -2.0044532674
 H         -2.0754913888        0.3025646339       -2.1887421152
 C         -4.0806972297       -1.8807191414       -0.4350559192
 H         -3.9133942636       -0.8985693130        1.4534122643
 H         -3.5613049750       -2.6240407823        1.5236697159
 H         -4.3024248666       -0.7475561152       -2.2592698150
 H         -4.1666309272        0.2400137864       -0.7980310871
 H         -5.1570140808       -2.0071861846       -0.3024093212
 H         -3.7027545754       -2.7736700238       -0.9366790686
 C         -1.9672326197        3.1154322642        1.3906835484
 C         -1.6227245843        1.0750868588        0.2744469336
 H         -2.9412093464        1.1661687224        1.9620719348
 C         -0.7792247688        2.0824665458       -0.4740082444
 C         -0.7654733041        3.3092492024        0.4529462767
 H         -0.8077566325        4.2441386233       -0.1006048300
 H          0.1656877801        3.2884550822        1.0197357398
 H         -1.7484336840        3.4144099245        2.4165063854
 H         -2.8286768015        3.6980609818        1.0530761556
 H         -1.2422306975        2.3222234125       -1.4430209891
 H         -1.5896275273       -1.0637571302        1.8238471204
48

Si                    3.15141000          -0.84744000           0.31132000         
C                     3.43026000           0.99579000           0.04897000         
H                     3.61527000           1.21320000          -1.00655000         
H                     4.30131000           1.33325000           0.61857000         
H                     2.56545000           1.57554000           0.38326000         
C                     2.88202000          -1.11144000           2.15862000         
H                     1.99960000          -0.56390000           2.50247000         
H                     3.74846000          -0.74985000           2.72134000         
H                     2.74396000          -2.17264000           2.38266000         
C                     4.75299000          -1.72396000          -0.17030000         
O                     1.88071000          -1.46716000          -0.60031000         
H                     4.96503000          -1.56813000          -1.23218000         
H                     4.67200000          -2.79883000           0.01376000         
H                     5.59312000          -1.33303000           0.41111000         
C                     0.59042000          -1.08055000          -0.36724000         
C                    -0.34783000          -2.02102000           0.32875000         
H                    -0.68579000          -2.80521000          -0.35638000         
H                     0.10555000          -2.48734000           1.20903000         
C                    -0.04537000           0.02631000          -0.78486000         
C                     0.50236000           1.12784000          -1.58319000         
O                     1.38241000           0.96683000          -2.41532000         
C                    -2.30304000           1.86172000           1.30344000         
C                    -1.48228000           0.04705000          -0.35323000         
C                    -1.47656000          -1.05959000           0.74325000         
C                    -2.37849000          -0.31569000          -1.56233000         
O                     0.00149000           2.35743000          -1.30746000         
C                    -2.82426000          -1.74330000           0.99830000         
C                    -3.75383000          -0.82302000          -1.14860000         
H                    -1.89964000          -1.09555000          -2.17191000         
H                    -2.50421000           0.54295000          -2.23440000         
C                    -3.61731000          -2.05493000          -0.26491000         
H                    -3.43721000          -1.08382000           1.62572000         
H                    -2.67707000          -2.66370000           1.57557000         
H                    -4.33212000          -1.07810000          -2.04419000         
H                    -4.30839000          -0.03685000          -0.62309000         
H                    -4.61377000          -2.42034000           0.00906000         
H                    -3.12800000          -2.86102000          -0.82445000         
C                    -2.21854000           3.35137000           1.40872000         
C                    -1.75788000           1.42371000           0.15964000         
H                    -2.72235000           1.24354000           2.08515000         
C                    -1.26988000           2.56388000          -0.67986000         
C                    -1.17037000           3.68866000           0.35041000         
H                    -1.33701000           4.67356000          -0.09758000         
H                    -0.16754000           3.71354000           0.79973000         
H                    -1.89011000           3.67096000           2.40187000         
H                    -3.18811000           3.80731000           1.18559000         
H                    -1.99887000           2.81471000          -1.45871000         
H                    -1.16010000          -0.62813000           1.70653000         
