  48
        -65.80424746
 Si         3.4029901226        0.3539860902        0.0295001731
 C          4.5550620701       -1.0917954689       -0.3775372799
 H          4.0645229649       -2.0326229581       -0.1497907945
 H          5.4737665227       -1.0381035165        0.1968411352
 H          4.8210966589       -1.1011719137       -1.4301709169
 C          4.1354652864        2.0441201505       -0.4689672558
 H          3.4404926935        2.8578898067       -0.2800006260
 H          4.3762954522        2.0643007729       -1.5276966261
 H          5.0478884286        2.2563603447        0.0784146534
 C          2.8306450190        0.4043023480        1.8456026186
 O          1.5689736148       -2.3620541287        0.4680395550
 H          2.4838103402       -0.5767716564        2.1548499603
 H          2.0067797542        1.1017645239        1.9805458810
 H          3.6280818956        0.7019374707        2.5186679580
 C          0.4353822842       -1.9383554314        0.3595999077
 C         -0.8016406488       -2.6093985777        0.9408215299
 H         -1.0526970889       -3.4534529146        0.2935588715
 H         -0.5938436607       -3.0104469943        1.9321312327
 C         -0.0036703256       -0.7229406969       -0.2780089639
 C          0.7976402993        0.2520862943       -0.7695703531
 O          2.0866345144        0.1027844661       -0.9615495112
 C         -2.2306401907        1.5553653968        1.1760603162
 C         -1.5015025980       -0.5417701777       -0.1568382067
 C         -1.9153445587       -1.5546170399        0.9355381596
 C         -2.2112928930       -0.9014095151       -1.4727072799
 O          0.3590648614        1.4721627017       -1.1339264692
 C         -3.3054628749       -2.1487375752        0.6831183718
 C         -3.7257680391       -0.7148624785       -1.3453043394
 H         -1.9770185290       -1.9406196741       -1.7070071248
 H         -1.8240111671       -0.2925299417       -2.2908530248
 C         -4.2303759665       -1.1158216481        0.0473762274
 H         -3.7295926206       -2.5009405681        1.6251316331
 H         -3.2310651885       -3.0108825470        0.0175209097
 H         -4.2176893599       -1.3185552483       -2.1102493105
 H         -3.9855203225        0.3284980294       -1.5334861054
 H         -4.2728894660       -0.2368798040        0.6906584107
 H         -5.2416364941       -1.5191172133       -0.0265291632
 C         -2.0160687065        3.0376192187        1.0994417112
 C         -1.6697088593        0.9073917792        0.1657716205
 H         -2.8062187049        1.1214116053        1.9744706530
 C         -0.9614228112        1.8668842558       -0.7633781357
 C         -0.9240752935        3.1853311752        0.0291835796
 H         -1.0712109960        4.0534188477       -0.6088949280
 H          0.0574687297        3.2674253152        0.4971483780
 H         -1.7186504537        3.4582519704        2.0608733869
 H         -2.9392104173        3.5364660466        0.7916456847
 H         -1.5253686244        1.9841540272       -1.6995884786
 H         -1.9141675910       -1.0371075980        1.8984699951
48

Si                    3.21954000          -0.61838000           0.44826000         
C                     4.83405000          -1.58997000           0.34966000         
H                     4.70407000          -2.59061000           0.77178000         
H                     5.62405000          -1.07827000           0.90707000         
H                     5.15464000          -1.69176000          -0.69119000         
C                     3.55926000           1.11880000          -0.18719000         
H                     2.68153000           1.75898000          -0.06186000         
H                     3.82616000           1.09587000          -1.24765000         
H                     4.38954000           1.57156000           0.36289000         
C                     2.74776000          -0.47937000           2.26882000         
O                     2.03582000          -1.40519000          -0.45062000         
H                     2.58521000          -1.47051000           2.70155000         
H                     1.83217000           0.10744000           2.38803000         
H                     3.54589000           0.01474000           2.83099000         
C                     0.71282000          -1.11114000          -0.26806000         
C                    -0.12074000          -2.00293000           0.59323000         
H                    -0.27116000          -2.96630000           0.09456000         
H                     0.33698000          -2.18579000           1.57018000         
C                    -0.01778000          -0.15690000          -0.86319000         
C                     0.46296000           0.86532000          -1.80092000         
O                     1.38918000           0.66900000          -2.57510000         
C                    -2.23330000           1.80854000           1.08135000         
C                    -1.44796000          -0.16546000          -0.41904000         
C                    -1.42540000          -1.19689000           0.75373000         
C                    -2.38974000          -0.66521000          -1.53601000         
O                    -0.16060000           2.06891000          -1.73839000         
C                    -2.65546000          -2.11965000           0.80718000         
C                    -3.82996000          -0.84949000          -1.04617000         
H                    -2.02710000          -1.63051000          -1.91775000         
H                    -2.39008000           0.00528000          -2.40492000         
C                    -3.92643000          -1.39661000           0.37985000         
H                    -2.77242000          -2.51330000           1.82378000         
H                    -2.51618000          -2.99161000           0.15549000         
H                    -4.34681000          -1.52817000          -1.73578000         
H                    -4.37049000           0.10343000          -1.09942000         
H                    -4.12676000          -0.57353000           1.07572000         
H                    -4.78630000          -2.07258000           0.45362000         
C                    -2.24421000           3.30101000           0.98429000         
C                    -1.75534000           1.25086000          -0.03986000         
H                    -2.55727000           1.27993000           1.96718000         
C                    -1.40299000           2.29208000          -1.05681000         
C                    -1.31908000           3.55732000          -0.20364000         
H                    -1.61148000           4.45046000          -0.76576000         
H                    -0.28965000           3.72571000           0.14129000         
H                    -1.85575000           3.77093000           1.89236000         
H                    -3.25985000           3.66432000           0.79815000         
H                    -2.19401000           2.38472000          -1.80974000         
H                    -1.36293000          -0.67201000           1.71686000         
