  48
        -65.80912050
 Si         3.4096723666        0.3556337220        0.1092256272
 C          4.1919679120        2.0962293416        0.1125635631
 H          5.1254123429        2.1071437030        0.6654656357
 H          3.5341957352        2.8352271314        0.5618818713
 H          4.4064343658        2.4264573603       -0.8993722299
 C          2.8568930478       -0.1005266170        1.8742417338
 H          2.0101365593        0.5058291169        2.1882863557
 H          3.6513276793        0.0416130334        2.5996729990
 H          2.5502705413       -1.1406314606        1.9180548439
 C          4.5287898149       -0.9310522676       -0.7139682538
 O          1.5953854247       -2.3219585753       -0.1831372968
 H          4.7707512191       -0.6473648068       -1.7338239924
 H          4.0317249033       -1.8949486231       -0.7454108768
 H          5.4611717553       -1.0456669255       -0.1711676993
 C          0.4701337593       -1.8726955710       -0.0947582022
 C         -0.7367284047       -2.6387991665        0.4346042084
 H         -1.1228370813       -3.2744357623       -0.3640079193
 H         -0.4539059334       -3.2845657399        1.2652403713
 C          0.0133392220       -0.5384300109       -0.4045404698
 C          0.7926153129        0.5335284841       -0.6779639885
 O          2.0850972518        0.4647023994       -0.8955790350
 C         -2.4456286022        1.4496043313        1.2810351330
 C         -1.4847329606       -0.4331785702       -0.1985141628
 C         -1.7459810687       -1.5550622819        0.8282002129
 C         -2.2095932861       -0.7162917039       -1.5310253932
 O          0.3363281590        1.7985302696       -0.7605759853
 C         -3.1960877601       -2.0294682286        0.9135023626
 C         -3.6870537805       -1.0138026272       -1.3114314812
 H         -1.7359824840       -1.5743322786       -2.0118713236
 H         -2.0883737102        0.1384450673       -2.1988172763
 C         -3.8331011783       -2.2630222799       -0.4516032236
 H         -3.7824781674       -1.2735630085        1.4399606694
 H         -3.2326200746       -2.9467747941        1.5056870754
 H         -4.1789593919       -1.1603948218       -2.2750644013
 H         -4.1619029915       -0.1658585135       -0.8123648229
 H         -4.8881216404       -2.5116007557       -0.3206506676
 H         -3.3553760057       -3.1062664312       -0.9541663968
 C         -2.3336834869        2.9412723669        1.3855063387
 C         -1.7476131277        0.9575544082        0.2687159352
 H         -3.0553879518        0.8875892338        1.9656499901
 C         -1.0380081082        2.0584461543       -0.4858916725
 C         -1.1745095428        3.2819950789        0.4357479234
 H         -1.3419748314        4.2001518003       -0.1219796973
 H         -0.2433043703        3.3851933863        0.9931173173
 H         -2.1433825157        3.2659661395        2.4092174240
 H         -3.2641298255        3.4123060167        1.0570443024
 H         -1.5274786076        2.2349222671       -1.4553585808
 H         -1.4545049579       -1.1720264345        1.8134214922
48

Si                    3.23241000          -0.65355000           0.31266000         
C                     3.45413000           1.19003000           0.00718000         
H                     4.31637000           1.56738000           0.56499000         
H                     2.57305000           1.75079000           0.33093000         
H                     3.62862000           1.38769000          -1.05411000         
C                     2.96002000          -0.88611000           2.16294000         
H                     2.06413000          -0.35174000           2.49228000         
H                     3.81554000          -0.49355000           2.72176000         
H                     2.84532000          -1.94528000           2.40868000         
C                     4.86767000          -1.48637000          -0.13817000         
O                     1.99490000          -1.33585000          -0.59785000         
H                     5.10387000          -1.30962000          -1.19166000         
H                     4.80640000          -2.56544000           0.02809000         
H                     5.68249000          -1.08486000           0.47132000         
C                     0.68273000          -1.04314000          -0.35127000         
C                    -0.18781000          -2.06828000           0.31386000         
H                    -0.45475000          -2.86263000          -0.39062000         
H                     0.29097000          -2.51508000           1.19087000         
C                    -0.03181000           0.02344000          -0.74672000         
C                     0.43262000           1.18536000          -1.51158000         
O                     1.32593000           1.11709000          -2.34275000         
C                    -2.50123000           1.62162000           1.31441000         
C                    -1.47293000          -0.08419000          -0.34208000         
C                    -1.39434000          -1.20777000           0.73271000         
C                    -2.31173000          -0.50058000          -1.57560000         
O                    -0.15934000           2.36468000          -1.19776000         
C                    -2.68745000          -2.00077000           0.95327000         
C                    -3.65038000          -1.12131000          -1.19775000         
H                    -1.75963000          -1.23150000          -2.18392000         
H                    -2.49127000           0.35440000          -2.24006000         
C                    -3.43432000          -2.35176000          -0.32792000         
H                    -3.36070000          -1.40388000           1.58145000         
H                    -2.47641000          -2.91689000           1.51740000         
H                    -4.18857000          -1.40780000          -2.10871000         
H                    -4.27614000          -0.38949000          -0.67375000         
H                    -4.40438000          -2.79588000          -0.07631000         
H                    -2.87621000          -3.10997000          -0.88996000         
C                    -2.56285000           3.11083000           1.43828000         
C                    -1.87963000           1.25351000           0.18525000         
H                    -2.89228000           0.95525000           2.07066000         
C                    -1.46893000           2.44566000          -0.62252000         
C                    -1.51654000           3.56165000           0.42113000         
H                    -1.76426000           4.53073000          -0.02400000         
H                    -0.53759000           3.67974000           0.90654000         
H                    -2.30166000           3.44681000           2.44580000         
H                    -3.56354000           3.47500000           1.18526000         
H                    -2.18606000           2.63826000          -1.42848000         
H                    -1.12633000          -0.77131000           1.70842000         
