  48
        -65.80153754
 Si         2.7908629158        1.5831669431        0.0261548985
 C          3.1413357687        2.2993721486        1.7494696914
 H          4.2031682149        2.4867457335        1.8716429726
 H          2.8247854768        1.6256097331        2.5367637673
 H          2.6226360473        3.2444338903        1.8851382681
 C          3.5056763020       -0.1378802857       -0.3661312434
 H          4.5689476470       -0.0756790766       -0.5753092395
 H          3.0242223097       -0.5664162475       -1.2419369776
 H          3.3701678572       -0.8261744573        0.4599393403
 C          3.4669298804        2.8018067795       -1.2804230827
 O          1.5531223364       -0.2422227792        1.9164670887
 H          4.5326490142        2.9569547564       -1.1499769844
 H          2.9829245666        3.7701230710       -1.2013454362
 H          3.3096229015        2.4429877073       -2.2933055680
 C          0.5159995073       -0.6512809226        1.4264559986
 C         -0.4428006298       -1.6157585554        2.1036714937
 H          0.0938471742       -2.4201495808        2.6055508468
 H         -0.9688281803       -1.0452463580        2.8731700892
 C         -0.0871065918       -0.2586204767        0.1867686632
 C          0.1308193400        0.9166774185       -0.4574195335
 O          1.1558096504        1.7117432081       -0.3069149668
 C         -3.5114878164        0.1185765667        0.3830583592
 C         -1.2909447610       -1.1163210094       -0.1506765100
 C         -1.4132927268       -2.1172905757        1.0261662800
 C         -1.0907002161       -1.8481604715       -1.4900908588
 O         -0.7475996268        1.4200676402       -1.3512894927
 C         -1.0616891473       -3.5434601966        0.5921074710
 C          0.1439046464       -2.7495249558       -1.4750159183
 H         -0.9772773760       -1.1188631540       -2.2930314409
 H         -1.9885783801       -2.4328209428       -1.7008699524
 C          0.2525452532       -3.5654816396       -0.1789519344
 H         -1.8608380946       -3.9534956113       -0.0276287853
 H         -0.9838526530       -4.1754666368        1.4794387954
 H          1.0355050096       -2.1312100040       -1.5892754348
 H          0.0937121068       -3.4136996075       -2.3400826643
 H          0.5307013125       -4.5963313114       -0.4039673780
 H          1.0371666878       -3.1466470559        0.4525506525
 C         -4.1541658035        1.4144085015       -0.0199515244
 C         -2.3861176070       -0.1065237912       -0.2795441487
 H         -3.9642508430       -0.5221872557        1.1182662689
 C         -2.1110114050        1.0137243006       -1.2588855746
 C         -3.0230838030        2.1454682972       -0.7584739503
 H         -3.3780845845        2.7815858268       -1.5658031110
 H         -2.4517813899        2.7583595450       -0.0600597780
 H         -4.5243280979        1.9743319782        0.8393758799
 H         -5.0002910698        1.2287139319       -0.6874890616
 H         -2.3993350370        0.7120500144       -2.2756503162
 H         -2.4357325400       -2.1211373880        1.4092071630
48

Si                    3.07912000           1.15854000           0.77982000         
C                     4.06576000           1.86910000           2.22693000         
H                     5.12750000           1.93088000           1.97152000         
H                     3.95587000           1.23595000           3.11186000         
H                     3.70853000           2.87368000           2.47181000         
C                     3.73356000          -0.57239000           0.43852000         
H                     4.79666000          -0.53114000           0.18284000         
H                     3.20098000          -1.03209000          -0.39891000         
H                     3.61921000          -1.21213000           1.31802000         
C                     3.45476000           2.22514000          -0.72310000         
O                     1.44573000           1.18500000           1.16676000         
H                     4.53448000           2.32847000          -0.86254000         
H                     3.02799000           3.22496000          -0.59917000         
H                     3.03755000           1.77714000          -1.62933000         
C                     0.58647000           0.22869000           0.69643000         
C                     0.33561000          -0.99060000           1.52019000         
H                     1.17098000          -1.69195000           1.45466000         
H                     0.19933000          -0.72687000           2.57535000         
C                    -0.29435000           0.36005000          -0.30572000         
C                    -0.43984000           1.53975000          -1.17654000         
O                     0.47426000           2.31918000          -1.39605000         
C                    -3.69729000          -0.12776000           0.38469000         
C                    -1.28438000          -0.76903000          -0.36844000         
C                    -0.97644000          -1.56222000           0.94479000         
C                    -1.09207000          -1.65380000          -1.62874000         
O                    -1.64461000           1.71281000          -1.77319000         
C                    -0.90604000          -3.08003000           0.73174000         
C                     0.13226000          -2.56184000          -1.54760000         
H                    -1.00220000          -1.03693000          -2.53238000         
H                    -1.98076000          -2.28272000          -1.78002000         
C                     0.09236000          -3.50171000          -0.34577000         
H                    -1.90342000          -3.44016000           0.44714000         
H                    -0.65771000          -3.58515000           1.67301000         
H                     1.04106000          -1.95011000          -1.50317000         
H                     0.21492000          -3.15310000          -2.46752000         
H                    -0.15899000          -4.51611000          -0.67919000         
H                     1.10044000          -3.57418000           0.08054000         
C                    -4.71821000           0.88775000          -0.02593000         
C                    -2.62493000          -0.09598000          -0.41923000         
H                    -3.82292000          -0.74888000           1.26038000         
C                    -2.80252000           0.91248000          -1.51082000         
C                    -3.92605000           1.79062000          -0.96726000         
H                    -4.54943000           2.20005000          -1.76908000         
H                    -3.51468000           2.65066000          -0.42075000         
H                    -5.09192000           1.45615000           0.83097000         
H                    -5.55965000           0.40574000          -0.53238000         
H                    -3.10211000           0.42312000          -2.44484000         
H                    -1.75126000          -1.39006000           1.70179000         
