  48
        -65.80374785
 Si         3.3547061080       -0.0077584972        0.1383416253
 C          2.7990153374        0.0064952263        1.9602779219
 H          3.6314623921        0.1645816625        2.6383233646
 H          2.3349716921       -0.9397394363        2.2195747838
 H          2.0695265324        0.7922715746        2.1439188448
 C          4.2693238224       -1.5816554615       -0.3829394882
 H          5.1874081593       -1.7089299562        0.1808406363
 H          4.5275645157       -1.5567934487       -1.4373393395
 H          3.6421512476       -2.4507435854       -0.2139869702
 C          4.3562489104        1.5720214401       -0.2396110030
 O          1.1656947648       -2.3899924861        0.4286576218
 H          3.8073392823        2.4724844093        0.0224832512
 H          4.5958519445        1.6354022611       -1.2968640489
 H          5.2920060960        1.5854128394        0.3094595745
 C          0.1061684160       -1.7963433715        0.3741725840
 C         -1.1774129947       -2.2635012573        1.0448574218
 H         -1.5337748311       -3.1590028541        0.5367092856
 H         -0.9667062492       -2.5460100976        2.0770333713
 C         -0.1698624691       -0.5280175480       -0.2521753985
 C          0.7652765935        0.3492517768       -0.6901497483
 O          2.0271502287        0.0397314134       -0.8665538198
 C         -2.2233040891        2.0158428220        1.1387266186
 C         -1.6314311094       -0.1539837437       -0.1433952709
 C         -2.1783473525       -1.1041863100        0.9469871131
 C         -2.3657680683       -0.3558627262       -1.4892664032
 O          0.5067417782        1.6346587389       -1.0029593781
 C         -3.6065828265       -1.5497445988        0.6444864521
 C         -2.7022931127       -1.8226503231       -1.7152406384
 H         -1.7296831858        0.0061377428       -2.2991487182
 H         -3.2845634429        0.2358414941       -1.4898497944
 C         -3.7234501070       -2.3119317325       -0.6821044439
 H         -4.2354188429       -0.6576468317        0.6095026133
 H         -3.9738162097       -2.1749866607        1.4606618973
 H         -1.7803470809       -2.4022172281       -1.6529198989
 H         -3.1031966791       -1.9570475338       -2.7216737228
 H         -4.7344525100       -2.1751140684       -1.0707538771
 H         -3.5900461066       -3.3823143142       -0.5172056486
 C         -1.8391167898        3.4652857614        1.0789979230
 C         -1.6383367660        1.3015944501        0.1892207384
 H         -2.9192578486        1.6518553803        1.8736396997
 C         -0.7737430123        2.1756385714       -0.6893064031
 C         -0.6370074961        3.4747989909        0.1217722171
 H         -0.6062395145        4.3571977374       -0.5126848541
 H          0.2957685798        3.4232214007        0.6842211489
 H         -1.5929280602        3.8658192883        2.0630198320
 H         -2.6657218369        4.0575518097        0.6770512801
 H         -1.2788919277        2.3615143477       -1.6486721461
 H         -2.1773906516       -0.5654568323        1.8991770105
48

Si                    3.05338000          -0.93856000           0.52876000         
C                     2.58981000          -0.93334000           2.35682000         
H                     3.43661000          -0.59756000           2.96274000         
H                     2.30958000          -1.93810000           2.68564000         
H                     1.74879000          -0.25845000           2.54129000         
C                     4.54597000          -2.07508000           0.32674000         
H                     5.37740000          -1.73079000           0.94866000         
H                     4.87589000          -2.09048000          -0.71601000         
H                     4.29041000          -3.09624000           0.62427000         
C                     3.58880000           0.80458000           0.07043000         
O                     1.79491000          -1.48953000          -0.44031000         
H                     2.77603000           1.51779000           0.23427000         
H                     3.88734000           0.85244000          -0.98072000         
H                     4.44162000           1.11540000           0.68132000         
C                     0.51627000          -1.04846000          -0.24007000         
C                    -0.41120000          -1.84979000           0.61336000         
H                    -0.68800000          -2.77795000           0.10494000         
H                     0.02989000          -2.11338000           1.57906000         
C                    -0.09995000          -0.00105000          -0.80956000         
C                     0.51110000           0.99010000          -1.70594000         
O                     1.44652000           0.72293000          -2.44880000         
C                    -2.15367000           2.17790000           1.11943000         
C                    -1.52624000           0.14169000          -0.36474000         
C                    -1.58884000          -0.87569000           0.81674000         
C                    -2.54196000          -0.20567000          -1.48709000         
O                     0.00803000           2.24890000          -1.63667000         
C                    -2.93875000          -1.58604000           0.92326000         
C                    -2.79805000          -1.70144000          -1.63530000         
H                    -2.20439000           0.18957000          -2.45429000         
H                    -3.50627000           0.28080000          -1.28198000         
C                    -3.35174000          -2.32119000          -0.35344000         
H                    -3.70658000          -0.83774000           1.15927000         
H                    -2.93299000          -2.29118000           1.76300000         
H                    -1.86915000          -2.20760000          -1.92289000         
H                    -3.50259000          -1.87929000          -2.45638000         
H                    -4.44758000          -2.34490000          -0.40059000         
H                    -3.03370000          -3.36958000          -0.30178000         
C                    -2.04220000           3.66570000           1.01604000         
C                    -1.69477000           1.57951000           0.01215000         
H                    -2.55164000           1.67864000           1.99219000         
C                    -1.23576000           2.57768000          -1.00283000         
C                    -1.08537000           3.84535000          -0.16202000         
H                    -1.31507000           4.74722000          -0.73947000         
H                    -0.05275000           3.95531000           0.19581000         
H                    -1.62918000           4.10737000           1.92744000         
H                    -3.02323000           4.10840000           0.81612000         
H                    -1.99208000           2.71769000          -1.78379000         
H                    -1.40918000          -0.36279000           1.77232000         
