  48
        -65.80381354
 Si         3.3757768214       -0.3293837198        0.0989783713
 C          2.9091401411       -0.2226065306        1.9432101707
 H          3.7798302494       -0.1784022052        2.5892203425
 H          2.3289234153       -1.0968622552        2.2251589538
 H          2.3005221670        0.6549593226        2.1499433666
 C          4.2985789375       -1.9182653125       -0.3557368673
 H          5.2336277247       -2.0009225675        0.1877803618
 H          4.5258895627       -1.9581297299       -1.4164686109
 H          3.6883821723       -2.7834866518       -0.1165302140
 C          4.2744460236        1.2583892137       -0.4571869818
 O          0.6569678003       -2.6722629861        0.5073380746
 H          5.1978681292        1.4082761186        0.0927766008
 H          3.6547083860        2.1392279955       -0.3117361286
 H          4.5258578588        1.2122974377       -1.5129985999
 C         -0.2729676746       -1.8969724736        0.4180758538
 C         -1.6351556574       -2.1010361606        1.0666297090
 H         -2.1469318319       -2.9147154554        0.5535540144
 H         -1.5037379235       -2.4108055635        2.1039302408
 C         -0.2977851649       -0.6079923355       -0.2331672725
 C          0.8015732102        0.0668316413       -0.6434188911
 O          1.9727070997       -0.5088164242       -0.7784244502
 C         -1.8530076194        2.2991342080        1.1111717086
 C         -1.6580042141        0.0453995034       -0.1454810049
 C         -2.3927360530       -0.7719441380        0.9428671272
 C         -2.4024764663       -0.0170195427       -1.4990998095
 O          0.8208120278        1.3825332936       -0.9395230455
 C         -3.8755824113       -0.9381779101        0.6211930118
 C         -3.0099100050       -1.3939088398       -1.7249750183
 H         -1.6997476891        0.2134143751       -2.3020536416
 H         -3.1910431781        0.7394686684       -1.5117369509
 C         -4.1179355472       -1.6736342186       -0.7033969955
 H         -4.3218115286        0.0573442851        0.5726598120
 H         -4.3666865549       -1.4756701343        1.4347482182
 H         -2.2160659317       -2.1379671185       -1.6479686545
 H         -3.4167106103       -1.4554796769       -2.7361404259
 H         -5.0799634086       -1.3507703768       -1.1061594716
 H         -4.1914659130       -2.7487108461       -0.5317458367
 C         -1.1943501378        3.6466815320        1.0618306568
 C         -1.3857762778        1.4765466177        0.1842159015
 H         -2.6305719359        2.0830218153        1.8222085626
 C         -0.3409072741        2.1612876739       -0.6666180052
 C          0.0189482325        3.4144847861        0.1480893632
 H          0.2443005196        4.2694633617       -0.4848314416
 H          0.9027753089        3.1851256573        0.7445265599
 H         -0.9094290421        4.0017162622        2.0528280996
 H         -1.8765885252        4.3833206514        0.6287380305
 H         -0.7720584225        2.4350839449       -1.6411641165
 H         -2.3020914592       -0.2335977324        1.8909829235
48

Si                    2.90536000          -1.28206000           0.52466000         
C                     2.46678000          -1.23408000           2.35843000         
H                     3.35376000          -1.00299000           2.95572000         
H                     2.07472000          -2.20132000           2.68550000         
H                     1.71242000          -0.46680000           2.55604000         
C                     4.26037000          -2.57536000           0.30049000         
H                     5.13150000          -2.32864000           0.91439000         
H                     4.57533000          -2.62131000          -0.74597000         
H                     3.89683000          -3.56371000           0.59647000         
C                     3.62417000           0.39402000           0.06629000         
O                     1.58021000          -1.68598000          -0.42829000         
H                     4.50973000           0.60830000           0.67207000         
H                     2.89496000           1.19098000           0.23738000         
H                     3.91941000           0.41234000          -0.98668000         
C                     0.37290000          -1.07334000          -0.23610000         
C                    -0.64678000          -1.71898000           0.64363000         
H                    -1.05318000          -2.61235000           0.16057000         
H                    -0.23694000          -2.01730000           1.61291000         
C                    -0.10142000           0.03202000          -0.83128000         
C                     0.63049000           0.90638000          -1.75834000         
O                     1.51428000           0.49456000          -2.49793000         
C                    -1.81274000           2.52113000           1.05378000         
C                    -1.48979000           0.38039000          -0.38010000         
C                    -1.67754000          -0.58763000           0.82937000         
C                    -2.55651000           0.14695000          -1.48429000         
O                     0.30283000           2.22315000          -1.72271000         
C                    -3.11058000          -1.10305000           0.96625000         
C                    -3.01736000          -1.30268000          -1.58941000         
H                    -2.17917000           0.46673000          -2.46459000         
H                    -3.44243000           0.76663000          -1.28483000         
C                    -3.63555000          -1.80711000          -0.28659000         
H                    -3.76581000          -0.25065000           1.18832000         
H                    -3.19141000          -1.78047000           1.82474000         
H                    -2.17027000          -1.93906000          -1.87083000         
H                    -3.74945000          -1.40307000          -2.39946000         
H                    -4.72478000          -1.68124000          -0.32404000         
H                    -3.46372000          -2.88758000          -0.20907000         
C                    -1.49879000           3.97619000           0.90927000         
C                    -1.45490000           1.83707000          -0.04107000         
H                    -2.26397000           2.10396000           1.94355000         
C                    -0.87588000           2.73616000          -1.08685000         
C                    -0.54190000           3.99220000          -0.28224000         
H                    -0.65314000           4.90201000          -0.88178000         
H                     0.50065000           3.96820000           0.06267000         
H                    -1.01686000           4.37953000           1.80448000         
H                    -2.41202000           4.54488000           0.70695000         
H                    -1.61563000           2.95880000          -1.86449000         
H                    -1.41814000          -0.07951000           1.76906000         
