12
-16.444082465735846
C        0.692049       1.321079      -2.748291
C        0.457225       0.342340      -1.606343
C        1.256681       1.054651      -0.517565
O        0.561423       2.579851      -2.154735
O        1.013546       2.447780      -0.795077
O        2.614266       0.874738      -0.641393
H        3.009087       1.801435      -0.326007
H        1.712230       1.190332      -3.146815
H       -0.030180       1.261968      -3.558391
H        0.852898       0.982740       0.497306
H        0.854782      -0.650281      -1.830545
H       -0.586932       0.277814      -1.318125
12
-17.0371762891009
C        0.693181       1.320812      -2.748163
C        0.457968       0.341933      -1.605867
C        1.257735       1.054247      -0.516909
O        0.562393       2.579166      -2.153229
O        1.015022       2.443966      -0.793608
O        2.617359       0.875015      -0.640256
H        3.007759       1.793138      -0.327162
H        1.714060       1.190069      -3.145483
H       -0.027522       1.261998      -3.559299
H        0.854279       0.983414       0.497843
H        0.855375      -0.651148      -1.830450
H       -0.585865       0.277688      -1.317467
