12
-23.207013616860422
C        0.655050       1.310652      -2.770486
C        0.510319       0.337804      -1.601246
C        1.232659       1.160409      -0.531972
O        0.528484       2.591272      -2.197072
O        0.946416       2.495581      -0.824891
O        2.598677       0.881374      -0.602527
H        3.086251       1.573669      -0.140921
H        1.639133       1.194657      -3.243481
H       -0.135844       1.227055      -3.515566
H        0.854906       0.987911       0.488223
H        1.006091      -0.612647      -1.767678
H       -0.533042       0.191873      -1.328183
12
-23.20704789770207
C        0.655048       1.310659      -2.770479
C        0.510316       0.337813      -1.601244
C        1.232658       1.160409      -0.531967
O        0.528464       2.591267      -2.197080
O        0.946415       2.495577      -0.824875
O        2.598677       0.881370      -0.602535
H        3.086258       1.573663      -0.140949
H        1.639156       1.194670      -3.243466
H       -0.135845       1.227045      -3.515586
H        0.854908       0.987897       0.488242
H        1.006092      -0.612635      -1.767678
H       -0.533045       0.191874      -1.328185
