  48
        -65.77710492
 Si         2.7436742783       -1.1669339050       -0.3264577404
 C          3.5224289016       -0.6395863715        1.3347113654
 H          3.1871788938       -1.2684493337        2.1548661934
 H          3.2646455874        0.3848868630        1.5889132921
 H          4.6054516972       -0.7014330675        1.2995725483
 C          3.2807636871       -2.9465043318       -0.7522313726
 H          3.1706785449       -3.6221192415        0.0911220754
 H          4.3209321050       -2.9810139801       -1.0602541716
 H          2.6843036453       -3.3475702976       -1.5671107118
 C          3.2071009509        0.0350565600       -1.7219085255
 O          1.1106036895       -0.9963959809       -0.3149825506
 H          2.7077092117        0.9903344306       -1.6028599207
 H          2.9304814509       -0.3605290036       -2.6939680113
 H          4.2764114547        0.2149771142       -1.7348202035
 C          0.0979364330       -1.5316990861        0.4105827432
 C          0.2568970117       -2.4606554691        1.3426913132
 H          1.2309306355       -2.8544984018        1.5646894559
 H         -0.5824531425       -2.8591573355        1.8771204764
 C         -1.2134966929       -0.9357558810        0.0456898046
 C         -2.4638957807       -1.3525802286        0.7615078411
 O         -3.3116673491       -0.3126557328        0.8334191167
 C         -1.3964435638       -0.4206432354       -1.3828675275
 C         -0.3647111681        1.5898107291        0.0343110893
 C          0.1504944970        2.3324025868       -0.9377896182
 C          0.0200988048        1.7510724751        1.4787730171
 O         -2.7201765928       -2.4170589051        1.2489655610
 C          1.1577737412        3.4152094229       -0.7109172872
 C          0.7349889874        3.0765117698        1.7235230010
 H          0.6728783053        0.9166312334        1.7542948171
 H         -0.8726305635        1.6772600174        2.1060994625
 C          1.8092995680        3.2888642614        0.6627247037
 H          0.6548688742        4.3851158651       -0.7966772037
 H          1.9171560248        3.3823591365       -1.4965029000
 H          1.1776534203        3.0798505967        2.7212293256
 H          0.0139339764        3.8954629356        1.6725108808
 H          2.3923904991        4.1847934449        0.8839416818
 H          2.4875247893        2.4334100242        0.6610958546
 C         -2.7782578158       -0.4720683947       -2.0088167348
 C         -1.3749766562        0.5473665226       -0.2467539509
 H         -0.5312620330       -0.5344011614       -2.0190174864
 C         -2.8625529354        0.7850761073        0.0424305531
 C         -3.5303792594        0.6857018107       -1.3322299792
 H         -3.3709829225        1.6177789755       -1.8745290510
 H         -4.5994160225        0.5024106295       -1.2405224249
 H         -3.2710741787       -1.4254451543       -1.8081901232
 H         -2.7228315628       -0.3410218463       -3.0886494651
 H         -3.0905396283        1.7048835404        0.5828741998
 H         -0.1697451231        2.1808487176       -1.9597386483
