  48
        -65.77347811
 Si         1.1152044294        3.1401370313        0.2601698895
 C          0.9589030732        3.2521291324        2.1490622132
 H         -0.0679480018        3.1213494787        2.4768004831
 H          1.2997868887        4.2164106266        2.5100138362
 H          1.5591131170        2.4860764964        2.6297681470
 C          2.9185418079        3.2133854970       -0.3343721444
 H          2.9847916170        3.2320741595       -1.4188141474
 H          3.4505186638        2.3311070531        0.0105330763
 H          3.4383048500        4.0881787149        0.0420874959
 C          0.0536680921        4.4845959111       -0.5861471591
 O          0.4664628585        1.6523060849       -0.0376946842
 H          0.3069125839        5.4717234057       -0.2137999221
 H         -1.0043661315        4.3256472990       -0.3969255370
 H          0.1928878847        4.4998803051       -1.6635392405
 C          0.6651866506        0.7452473655       -1.0168542205
 C          0.7201994759        1.0455131873       -2.3063682150
 H          0.6058826209        2.0608344229       -2.6367907896
 H          0.8893462654        0.2958327217       -3.0548602711
 C          0.8358194057       -0.6256288470       -0.4636590598
 C          1.8705384091       -0.7381287728        0.6223879705
 O          1.5083274451       -1.6823875170        1.5036714438
 C          0.5474375079       -1.8804901566       -1.2656208423
 C         -1.7333881228       -1.2711395151       -0.0402768172
 C         -2.2135145237       -0.1089867874        0.3837731419
 C         -2.6194781883       -2.3987352090       -0.5023843156
 O          2.8637467303       -0.0793758879        0.7460584936
 C         -3.6715905668        0.2206340987        0.4336813936
 C         -4.0208053446       -1.8970995187       -0.8368694593
 H         -2.6756401549       -3.1539897660        0.2892013643
 H         -2.1705613161       -2.8791532693       -1.3753208746
 C         -4.5404908046       -1.0270624683        0.3016856936
 H         -3.8955902807        0.9184600262       -0.3803671804
 H         -3.8939307911        0.7407554497        1.3686361003
 H         -4.6883407225       -2.7440366698       -1.0065455505
 H         -3.9844079507       -1.3049831607       -1.7534431888
 H         -5.5785047155       -0.7423023500        0.1208219397
 H         -4.5046346034       -1.5966223609        1.2327090526
 C          1.3935330119       -3.1181964185       -1.0179923340
 C         -0.2815579504       -1.5622659079       -0.0566767699
 H          0.1438327811       -1.7270915113       -2.2555918428
 C          0.3711949811       -2.4099961375        1.0460553201
 C          0.8680097374       -3.6640214478        0.3200412591
 H          0.0294961242       -4.3411959985        0.1568492624
 H          1.6339612410       -4.1775442032        0.8983733719
 H          2.4526385953       -2.8641943291       -0.9439481620
 H          1.2749708933       -3.8426133131       -1.8227328356
 H         -0.2641941531       -2.6126312293        1.9092859679
 H         -1.5382815669        0.6738961390        0.6968372260
