  48
        -65.77345382
 Si         0.2143733008        3.3897832805        0.0719830653
 C          1.4586842276        3.1694069043       -1.3566056896
 H          2.2860582288        2.5358658583       -1.0497425964
 H          1.8781076889        4.1226426712       -1.6616602487
 H          0.9995745665        2.7195197810       -2.2326957826
 C         -1.1536213639        4.6215414480       -0.3969353221
 H         -0.7265758244        5.5874030340       -0.6425086189
 H         -1.8541218249        4.7675882068        0.4186849543
 H         -1.7200205598        4.2824091438       -1.2582229729
 C          1.1551912965        3.8471846212        1.6584164564
 O         -0.6713444334        2.0169979162        0.3167728413
 H          0.4801246729        3.9843046925        2.4986864891
 H          1.7311920295        4.7597108914        1.5457126492
 H          1.8453591712        3.0485267256        1.9190158448
 C         -0.3083999147        0.8583139162        0.9136958981
 C         -0.7276715358        0.5319271248        2.1282723436
 H         -1.3459647792        1.2008397860        2.6976914511
 H         -0.4612134656       -0.4080256941        2.5731764429
 C          0.5850266586       -0.0341991115        0.1273138525
 C          1.9774481354       -0.2047237997        0.6513755820
 O          2.4260342532       -1.4328592308        0.3578161782
 C          0.4051790829       -0.2102721160       -1.3628871661
 C         -1.1176223795       -2.0494447209       -0.2022393663
 C         -2.2491691651       -1.3488881200       -0.1851568998
 C         -1.0980973464       -3.5360377117        0.0427621639
 O          2.6161013162        0.5946276165        1.2770579623
 C         -3.5966792502       -1.9277819685        0.1065622760
 C         -2.4950215566       -4.1459524067       -0.0443657108
 H         -0.6735552367       -3.7255961104        1.0341990325
 H         -0.4506271217       -4.0224170615       -0.6912236357
 C         -3.4843990293       -3.3047763593        0.7505660956
 H         -4.1635701694       -1.9997914877       -0.8282874191
 H         -4.1440863009       -1.2441683469        0.7597919800
 H         -2.4705589742       -5.1703529872        0.3316135530
 H         -2.8117326791       -4.1774172152       -1.0889070088
 H         -4.4620778833       -3.7887041818        0.7793669026
 H         -3.1269529390       -3.1995320175        1.7765837411
 C          1.6224960745       -0.4522360714       -2.2379594091
 C          0.1819903485       -1.3870414979       -0.4461347152
 H         -0.4370037843        0.3088771803       -1.7966939693
 C          1.5254250791       -2.1239922570       -0.5103254535
 C          2.0016769547       -1.9134740651       -1.9505132550
 H          1.4576186470       -2.5897192968       -2.6103575270
 H          3.0694306341       -2.1020078065       -2.0468713426
 H          2.4434152605        0.2166196112       -1.9733191132
 H          1.3848219646       -0.2967013001       -3.2893033685
 H          1.5206510619       -3.1661677123       -0.1941728194
 H         -2.2351558002       -0.2866696481       -0.3793328081
