  48
        -65.77345097
 Si         0.3352160674        2.9291671595        0.6470279518
 C         -1.2042233099        4.0464307811        0.5914070353
 H         -1.3087430688        4.5347406328       -0.3719835032
 H         -1.1431129380        4.8205231285        1.3483057202
 H         -2.1135487940        3.4814132374        0.7706748579
 C          0.5091557430        2.1626853293        2.3849930555
 H         -0.3091483542        1.4859656963        2.6187676537
 H          0.5161646322        2.9350178334        3.1477964220
 H          1.4351133478        1.6045440084        2.4820995485
 C          1.9323522825        3.8330524595        0.1561168272
 O         -0.0690142464        1.7951863457       -0.4772160615
 H          2.7629138469        3.1329559089        0.1446455487
 H          2.1787619652        4.6295034234        0.8504027284
 H          1.8544043380        4.2704366815       -0.8354614944
 C          0.6099251618        0.9386343133       -1.2694736712
 C          0.8904416378        1.2275796318       -2.5325864290
 H          0.6085693266        2.1754602958       -2.9524327635
 H          1.4145519287        0.5367128307       -3.1649386891
 C          1.0066699659       -0.3423027789       -0.6222569174
 C          2.0351017456       -0.2316750157        0.4630920032
 O          1.8369266034       -1.1866898694        1.3828722865
 C          0.9595627574       -1.6595147175       -1.3758877522
 C         -1.4138827641       -1.4287023967       -0.1871089633
 C         -2.0980142664       -0.4624868675        0.4126283191
 C         -2.0834902189       -2.6024741822       -0.8526214639
 O          2.8965706874        0.5974257171        0.5589491491
 C         -3.5909332328       -0.4119881586        0.4772374457
 C         -3.5534785940       -2.3109741005       -1.1374729063
 H         -1.9989570522       -3.4762151748       -0.1968877074
 H         -1.5598150625       -2.8448437346       -1.7802402006
 C         -4.2199171780       -1.7543347728        0.1151979546
 H         -3.9385785277        0.3622693854       -0.2147977401
 H         -3.9005892834       -0.1052364082        1.4795437513
 H         -4.0563177581       -3.2227241680       -1.4653949426
 H         -3.6272239536       -1.5749029452       -1.9403120333
 H         -5.2927331447       -1.6335494926       -0.0448104068
 H         -4.0793048845       -2.4576843295        0.9388108333
 C          2.0048422460       -2.7201578682       -1.0738157668
 C          0.0681344459       -1.4483610520       -0.1891177751
 H          0.5574317571       -1.6082564835       -2.3774000691
 C          0.8482861705       -2.1201109063        0.9527253950
 C          1.5646443269       -3.2960988978        0.2822451318
 H          0.8582428919       -4.1142635665        0.1415469474
 H          2.4002712034       -3.6459906841        0.8857144505
 H          3.0031312884       -2.2838145151       -1.0047929736
 H          2.0229450026       -3.4850236725       -1.8490454147
 H          0.2484468566       -2.3947512832        1.8214325829
 H         -1.5767101304        0.3687575354        0.8632530317
