  48
        -65.77344349
 Si         0.2166789981        3.3029074943       -0.5703492941
 C          1.6205555520        2.9338932602       -1.8099569248
 H          2.0880697437        3.8525606301       -2.1492508131
 H          1.2563963087        2.4125557728       -2.6909937917
 H          2.3969981766        2.3211188718       -1.3613301670
 C         -1.1112257851        4.3966423040       -1.3758949752
 H         -1.8854607475        4.6739683332       -0.6677977202
 H         -1.5933973132        3.8885881943       -2.2049119276
 H         -0.6715345330        5.3105547299       -1.7596487058
 C          0.9530525494        4.0264922967        1.0256786738
 O         -0.6259953190        1.9260289160       -0.2212090846
 H          1.5294458874        3.2663561431        1.5480908433
 H          0.1754436480        4.3647926776        1.7048063898
 H          1.6099154066        4.8682743099        0.8334756098
 C         -0.3841918777        1.0149095497        0.7517410085
 C         -0.9962004163        1.0676084160        1.9268263777
 H         -1.6851134578        1.8603866176        2.1531488279
 H         -0.8050767390        0.3357209290        2.6889083247
 C          0.6114970950       -0.0413880604        0.4301838310
 C          1.7211024022       -0.2471660655        1.4168124604
 O          2.0952205965       -1.5364739522        1.4201502452
 C          0.9117276855       -0.4023229817       -1.0129741389
 C         -1.0833327889       -1.9855847456       -0.2325622220
 C         -1.6890305715       -2.0971860353       -1.4091498261
 C         -1.7372705557       -2.4053902505        1.0554008945
 O          2.2066746438        0.5768069907        2.1396467178
 C         -3.0682526180       -2.6456169690       -1.5921239167
 C         -2.9142283075       -3.3410085379        0.7984689323
 H         -2.0860921159       -1.5052037840        1.5709924634
 H         -1.0021145014       -2.8852328078        1.7062350872
 C         -3.8203003037       -2.7359697215       -0.2675110336
 H         -2.9908210940       -3.6400334863       -2.0458373966
 H         -3.6173012153       -2.0164332071       -2.2971876566
 H         -3.4688686359       -3.5023439937        1.7243253520
 H         -2.5446223082       -4.3085878321        0.4519014892
 H         -4.7218326832       -3.3385618669       -0.3909926964
 H         -4.1219250117       -1.7352907397        0.0475697135
 C          2.3190179989       -0.8346355290       -1.3859580575
 C          0.2767534104       -1.4190859086       -0.1166812206
 H          0.3232445484        0.1291503395       -1.7459325928
 C          1.4691691638       -2.2598301674        0.3607604426
 C          2.4195344594       -2.2682521799       -0.8403125733
 H          2.0563690971       -2.9862862240       -1.5757241698
 H          3.4309055282       -2.5399252352       -0.5431455813
 H          3.0699197847       -0.1924053849       -0.9211735467
 H          2.4670045551       -0.8017746309       -2.4644043790
 H          1.2219232396       -3.2539560489        0.7350508839
 H         -1.1753375109       -1.7966064313       -2.3122228625
