  48
        -65.77332635
 Si         0.9933464414        3.4184427742        0.0867257586
 C          2.2753225499        3.2867324204        1.4847352620
 H          1.8139712091        3.3895789411        2.4629169137
 H          3.0455066447        4.0471300914        1.4074236464
 H          2.7605775740        2.3141322276        1.4597895338
 C          1.7638065678        3.8672405073       -1.5915078795
 H          2.1289469297        4.8883905452       -1.5848179408
 H          1.0414951361        3.7809926564       -2.3972516559
 H          2.6009054347        3.2184438014       -1.8292538577
 C         -0.3938150466        4.6526157094        0.5314394013
 O          0.3460748569        1.9312430569       -0.2260964442
 H         -1.1909402569        4.6303722991       -0.2065279988
 H         -0.0139614620        5.6683469305        0.5699626265
 H         -0.8395333229        4.4363298896        1.4984444265
 C          0.1550859222        0.8683603827        0.5852735964
 C         -0.4385592230        0.9224395108        1.7688857591
 H         -0.7949621327        1.8528740115        2.1697207243
 H         -0.5779003116        0.0344506280        2.3558813643
 C          0.6969519230       -0.4029851267        0.0306524603
 C          1.8949838334       -0.9791999979        0.7221784357
 O          1.8784998372       -2.3169076124        0.6190590622
 C          0.5301703780       -0.7226614134       -1.4393357299
 C         -1.5938125911       -1.7072990905       -0.1599680941
 C         -2.0944687773       -2.6225045572        0.6652743285
 C         -2.4701208736       -0.7118004089       -0.8723348537
 O          2.7379472463       -0.3786773358        1.3270405777
 C         -3.5534803560       -2.7949144841        0.9481993771
 C         -3.8605638209       -0.6389179829       -0.2497479712
 H         -2.5489098571       -1.0013700311       -1.9255277870
 H         -2.0031597529        0.2743812893       -0.8337143358
 C         -4.4169721803       -2.0440516269       -0.0594605183
 H         -3.7583578097       -2.4269804546        1.9594897396
 H         -3.7997487396       -3.8601226514        0.9418879458
 H         -4.5199216696       -0.0480763326       -0.8879081947
 H         -3.7943774043       -0.1432651299        0.7206237393
 H         -5.4501565545       -2.0044118419        0.2895885281
 H         -4.4033734893       -2.5696135512       -1.0165334649
 C          1.6219395526       -1.4981793747       -2.1543142546
 C         -0.1438556385       -1.5917500482       -0.4128977752
 H         -0.0225260572        0.0072173176       -2.0117795104
 C          0.8406981413       -2.7580763564       -0.2567763878
 C          1.4386870615       -2.9389713926       -1.6546935938
 H          0.7255410870       -3.4764961090       -2.2799211900
 H          2.3720745933       -3.4975253574       -1.6156497337
 H          2.6116855195       -1.1190735214       -1.8923429661
 H          1.5077771643       -1.4277880856       -3.2351767357
 H          0.4261193618       -3.6759096346        0.1588017773
 H         -1.4399448174       -3.2975935654        1.1988901966
