  48
        -65.77331159
 Si         0.9741481459        3.4302699511        0.1015474759
 C          2.2160703326        3.2976597867        1.5349157198
 H          2.7164256675        2.3327211769        1.5105080422
 H          1.7243223168        3.3793959236        2.5002344942
 H          2.9765223338        4.0704070615        1.4911635932
 C          1.7915162253        3.8832479328       -1.5531574758
 H          2.6298048860        3.2294874373       -1.7724270876
 H          2.1638150578        4.9015852141       -1.5308988333
 H          1.0901001972        3.8069041913       -2.3781453366
 C         -0.4276314486        4.6608356088        0.5091686717
 O          0.3371613475        1.9430328670       -0.2322408307
 H         -1.2051310791        4.6358331756       -0.2493582972
 H         -0.0517448603        5.6776384397        0.5568608903
 H         -0.8978059636        4.4438748794        1.4643782308
 C          0.1285736373        0.8767614745        0.5698997980
 C         -0.4963946342        0.9240485663        1.7375547792
 H         -0.8673539209        1.8516272639        2.1318253597
 H         -0.6481499891        0.0332895451        2.3172671130
 C          0.6906848388       -0.3897844304        0.0239709835
 C          1.8959601893       -0.9433446200        0.7213165379
 O          1.9010528645       -2.2816065192        0.6244703152
 C          0.5331464749       -0.7189435312       -1.4450875649
 C         -1.5784285093       -1.7315527088       -0.1661589362
 C         -2.0653117820       -2.6477718970        0.6661680571
 C         -2.4699064361       -0.7578923337       -0.8897410944
 O          2.7273429773       -0.3268419694        1.3261672051
 C         -3.5218160463       -2.8426112709        0.9474426646
 C         -3.8627523423       -0.7030423915       -0.2706558507
 H         -2.5413050605       -1.0585365637       -1.9403475990
 H         -2.0198495054        0.2364163157       -0.8591781218
 C         -4.3957520020       -2.1156031771       -0.0686686170
 H         -3.7352307835       -2.4692678705        1.9549906010
 H         -3.7498976550       -3.9118693170        0.9501319083
 H         -4.5306491841       -0.1293431157       -0.9155258716
 H         -3.8070593373       -0.1974455386        0.6952356497
 H         -5.4301891723       -2.0902973705        0.2780062461
 H         -4.3712635436       -2.6495118247       -1.0208886372
 C          1.6388988217       -1.4805216805       -2.1535110876
 C         -0.1298213903       -1.5934859576       -0.4160451829
 H         -0.0293813755       -0.0006562778       -2.0226029883
 C          0.8726852402       -2.7433768744       -0.2518594843
 C          1.4771628595       -2.9215899828       -1.6473264403
 H          0.7742979179       -3.4733813791       -2.2717680723
 H          2.4191766669       -3.4650843344       -1.6031289446
 H          2.6218059920       -1.0844563417       -1.8909028721
 H          1.5264428143       -1.4171556399       -3.2349885323
 H          0.4714808631       -3.6656149469        0.1671148460
 H         -1.4004775742       -3.3066013100        1.2073545827
