  48
        -65.77326999
 Si         1.2248012589        2.9078853361        0.8293013741
 C          0.6623829300        4.4345112636       -0.1742352544
 H          0.8107972061        5.3477663068        0.3927900004
 H         -0.3931039098        4.3750998561       -0.4261156867
 H          1.2141980535        4.5414195706       -1.1041570884
 C          0.4137463947        2.9157066546        2.5465549695
 H          0.7282983946        2.0572790948        3.1312506577
 H         -0.6696062993        2.8895601347        2.4801721584
 H          0.6882930393        3.8092505954        3.0964675679
 C          3.1207778492        2.7945960701        0.8908309035
 O          0.5875446142        1.5216154022        0.2004593776
 H          3.4221889710        1.7750372417        1.1163523897
 H          3.5446090063        3.4458356193        1.6482168560
 H          3.5720936511        3.0617051537       -0.0607886645
 C          0.9202089999        0.7550363862       -0.8573347079
 C          1.3259270947        1.2210078162       -2.0299082586
 H          1.4149994829        2.2766504031       -2.2032580342
 H          1.5863520493        0.5588432563       -2.8334837830
 C          0.8379969835       -0.6987769783       -0.5429417163
 C          1.8192892138       -1.1367792287        0.5096427146
 O          1.3247317021       -2.1739018771        1.1952005593
 C          0.4193936008       -1.7365520232       -1.5578989098
 C         -1.8120212425       -1.0754619117       -0.2798245209
 C         -2.7778320385       -1.8198106538        0.2525825924
 C         -2.0980147297        0.2657411879       -0.8983911628
 O          2.8775227467       -0.6323190764        0.7592027963
 C         -4.2167902772       -1.4128067733        0.3232616531
 C         -3.5835316533        0.4513299355       -1.1906226244
 H         -1.5208971807        0.3779546389       -1.8187359720
 H         -1.7572078578        1.0445641352       -0.2105219798
 C         -4.3988051477        0.0738361164        0.0390310662
 H         -4.6128322548       -1.6624421071        1.3112108109
 H         -4.7845278377       -2.0028442128       -0.4050578564
 H         -3.8763405558       -0.1882047340       -2.0262575698
 H         -3.7744930926        1.4874988000       -1.4750209303
 H         -4.0482319722        0.6550518197        0.8939346507
 H         -5.4556925545        0.2993181270       -0.1140914659
 C          1.0828814417       -3.1025991612       -1.5381178802
 C         -0.4082884554       -1.5377369251       -0.3101599096
 H          0.0655132668       -1.3589756405       -2.5063741188
 C          0.1104708354       -2.6468257987        0.6162466186
 C          0.4497565269       -3.8049365543       -0.3265998951
 H         -0.4708258071       -4.3121930019       -0.6153525786
 H          1.1198973594       -4.5195465179        0.1477214613
 H          2.1639083168       -3.0133174429       -1.4128638004
 H          0.8919349565       -3.6443895999       -2.4633227842
 H         -0.5487671392       -2.9189850230        1.4398393866
 H         -2.5600759261       -2.7970400425        0.6605300472
