  48
        -65.77328335
 Si         0.9870790481        3.4396150332        0.1192505617
 C          2.1447207121        3.3189385708        1.6226079242
 H          1.5962436504        3.3806984017        2.5583498362
 H          2.8901155175        4.1074275917        1.6300335586
 H          2.6657733655        2.3647410959        1.6175561467
 C          1.8971413727        3.9008001698       -1.4835990174
 H          1.2490177381        3.8124432011       -2.3499003017
 H          2.7563989572        3.2583769805       -1.6484917860
 H          2.2531650881        4.9242994328       -1.4415205718
 C         -0.4492155825        4.6557812920        0.4425478266
 O          0.3865237783        1.9461864293       -0.2516640320
 H         -0.0890184361        5.6775511037        0.5028504916
 H         -0.9678721537        4.4395720328        1.3725048235
 H         -1.1842398165        4.6157983087       -0.3566492929
 C          0.1232561358        0.8825070119        0.5365914088
 C         -0.5498564951        0.9360317390        1.6769434505
 H         -0.9223629868        1.8680608045        2.0589937309
 H         -0.7413615300        0.0456293461        2.2453218985
 C          0.6867764631       -0.3912958412        0.0086446351
 C          1.8895895057       -0.9348562966        0.7181686117
 O          1.8960335516       -2.2743363425        0.6375569963
 C          0.5345757249       -0.7389442270       -1.4568989045
 C         -1.5806310957       -1.7367275420       -0.1704758544
 C         -2.0664898486       -2.6346487138        0.6821358919
 C         -2.4730067266       -0.7827274487       -0.9186268367
 O          2.7167107501       -0.3105761050        1.3207530841
 C         -3.5229866363       -2.8261415109        0.9656747909
 C         -3.8683541118       -0.7187900256       -0.3059602120
 H         -2.5392336949       -1.1068232954       -1.9625689026
 H         -2.0263857385        0.2135941036       -0.9082721792
 C         -4.3963804782       -2.1281143255       -0.0709665161
 H         -3.7394932132       -2.4267900551        1.9625648166
 H         -3.7484863315       -3.8954789468        0.9961507540
 H         -4.5363136927       -0.1639692085       -0.9670816405
 H         -3.8182403785       -0.1892481603        0.6473258449
 H         -5.4321086162       -2.0984721421        0.2714804350
 H         -4.3663348617       -2.6853012661       -1.0095828043
 C          1.6429985452       -1.5090165478       -2.1518456052
 C         -0.1314145376       -1.6003545265       -0.4187899171
 H         -0.0262213876       -0.0285317132       -2.0457386446
 C          0.8710849939       -2.7476473132       -0.2366028104
 C          1.4805126212       -2.9434878448       -1.6275371654
 H          0.7802850185       -3.5039198546       -2.2472444276
 H          2.4227598490       -3.4856367521       -1.5729867409
 H          2.6247592860       -1.1088386557       -1.8913083950
 H          1.5339141676       -1.4597565812       -3.2344098436
 H          0.4684212449       -3.6645896823        0.1925830802
 H         -1.4005325645       -3.2785419852        1.2397315774
