  48
        -65.77576646
 Si         2.8416808919       -1.0355781199       -0.1626283729
 C          3.2473799336       -0.3861438861       -1.9025274687
 H          2.7748897047        0.5704194557       -2.1002363765
 H          2.9209573727       -1.0794650338       -2.6713640583
 H          4.3176409809       -0.2530154494       -2.0162848285
 C          3.5116100543        0.1284711207        1.1917690877
 H          3.0709820142       -0.0960187447        2.1591714407
 H          3.2843978441        1.1663138585        0.9663046453
 H          4.5889495402        0.0462144751        1.2932317216
 C          3.5527262746       -2.7899876589        0.0722459320
 O          1.2003443512       -1.0150602698       -0.1979919345
 H          3.6070915495       -3.0753118811        1.1189753231
 H          4.5566541983       -2.8657837137       -0.3335619540
 H          2.9379167195       -3.5293426768       -0.4337195569
 C          0.2229868250       -1.4064514193        0.6553545566
 C          0.4390297697       -2.0415158073        1.7984989010
 H          1.4354305671       -2.2972612088        2.1059262590
 H         -0.3748542952       -2.3454808538        2.4264893657
 C         -1.1252542301       -1.0107834114        0.1719841806
 C         -2.3567851170       -1.4561593690        0.9013118296
 O         -3.3022540021       -0.5055763444        0.8128825702
 C         -1.2957564007       -0.6895333321       -1.3110903068
 C         -0.5035754729        1.5586836180       -0.0933063453
 C         -0.2055975799        1.9604304511        1.1368892608
 C          0.0109512261        2.2543426288       -1.3225460456
 O         -2.5268040422       -2.4710705479        1.5155703787
 C          0.6552444511        3.1431909636        1.4460672480
 C          1.1913545984        3.1613712557       -0.9899522945
 H         -0.8017186424        2.8433528350       -1.7620441357
 H          0.3060912535        1.5078816536       -2.0627034680
 C          0.8551717664        4.0275341751        0.2184807007
 H          1.6234101931        2.7847460960        1.8111669537
 H          0.2036140301        3.7182858452        2.2586333939
 H          1.4348545518        3.7860848944       -1.8516251333
 H          2.0630364351        2.5461806025       -0.7585523967
 H          1.6522449257        4.7497469457        0.4042015015
 H         -0.0628207863        4.5837998314        0.0168380804
 C         -2.6400498185       -0.9465200717       -1.9682898125
 C         -1.4097007223        0.4061981152       -0.3032076090
 H         -0.4013778532       -0.8083045639       -1.9045891793
 C         -2.9243199456        0.5305685379       -0.0912194409
 C         -3.5244238676        0.2044735236       -1.4617409251
 H         -3.4334427460        1.0753235474       -2.1111554630
 H         -4.5740133371       -0.0713759644       -1.3784963503
 H         -3.0508539373       -1.9124850778       -1.6682743195
 H         -2.5509938801       -0.9395099458       -3.0538962100
 H         -3.2543661729        1.4804952648        0.3316669021
 H         -0.5850593229        1.4103286236        1.9880896188
