  48
        -65.77325238
 Si         0.9529891865        3.4621790304        0.1420924134
 C          2.0486448999        3.3402654869        1.6909229716
 H          2.5809397609        2.3922962811        1.6971502620
 H          1.4617221786        3.3862804487        2.6040562724
 H          2.7836235509        4.1372044200        1.7361778027
 C          1.9268018553        3.9362489065       -1.4188063759
 H          1.3162051714        3.8499759467       -2.3121398249
 H          2.7949120152        3.2981781920       -1.5504525390
 H          2.2764141410        4.9609765462       -1.3562426461
 C         -0.5019474244        4.6695224909        0.4117895845
 O          0.3747480396        1.9682258581       -0.2609994696
 H         -0.1503210414        5.6932036271        0.4879754916
 H         -1.0549417975        4.4483931043        1.3205743501
 H         -1.2051545783        4.6269727812       -0.4153981158
 C          0.0805072859        0.8992368196        0.5081593267
 C         -0.6428416591        0.9429330740        1.6177340866
 H         -1.0367976210        1.8711143604        1.9874947810
 H         -0.8560058721        0.0483177228        2.1716535638
 C          0.6752348402       -0.3675506045       -0.0030355524
 C          1.8905904106       -0.8697668029        0.7157826071
 O          1.9339166456       -2.2092938671        0.6503258128
 C          0.5378448439       -0.7350175625       -1.4654141520
 C         -1.5537145337       -1.7799545540       -0.1768399793
 C         -2.0160623601       -2.6799442156        0.6866179828
 C         -2.4713858933       -0.8669670353       -0.9452660322
 O          2.6978681218       -0.2166685376        1.3147711796
 C         -3.4674656501       -2.9140957226        0.9642229511
 C         -3.8723912245       -0.8392172287       -0.3428040709
 H         -2.5196834579       -1.2088238109       -1.9845049505
 H         -2.0572290034        0.1433637702       -0.9470920956
 C         -4.3559464649       -2.2611586161       -0.0888512756
 H         -3.7036024150       -2.5065337419        1.9532997813
 H         -3.6583539930       -3.9895871411        1.0102240154
 H         -4.5533937824       -0.3169923904       -1.0170294902
 H         -3.8464052764       -0.2933726040        0.6022056541
 H         -5.3944056951       -2.2598931283        0.2465357181
 H         -4.3014234508       -2.8316976503       -1.0182879527
 C          1.6691919759       -1.4818194973       -2.1486900034
 C         -0.1077783202       -1.6027222105       -0.4195374170
 H         -0.0404504037       -0.0470690971       -2.0639429462
 C          0.9254734883       -2.7199952950       -0.2218258631
 C          1.5450052068       -2.9142263778       -1.6085222332
 H          0.8631241953       -3.5011876497       -2.2240995078
 H          2.5019086179       -3.4289951669       -1.5445823687
 H          2.6386480507       -1.0514441349       -1.8902742816
 H          1.5618306248       -1.4478452996       -3.2320204364
 H          0.5465738760       -3.6429680621        0.2160103898
 H         -1.3333290734       -3.2933410781        1.2581738535
