  48
        -65.77310767
 Si         2.5901347657        2.1771421988       -0.1093681459
 C          4.0139709111        2.1218284955        1.1542978216
 H          3.6830714591        2.3740305457        2.1576915606
 H          4.8043776002        2.8173646738        0.8906703035
 H          4.4503828020        1.1279096199        1.1978063632
 C          3.2385036525        2.1994880969       -1.8947863694
 H          2.4291944221        2.1976129696       -2.6184184994
 H          3.8639899487        1.3367005315       -2.0998170124
 H          3.8342662725        3.0880466176       -2.0721080314
 C          1.4608960316        3.6821240234        0.2208559943
 O          1.7145600474        0.7832841339       -0.1235786409
 H          2.0361574647        4.5976561749        0.3135859385
 H          0.8885766430        3.5601905765        1.1364615160
 H          0.7504225577        3.8268750176       -0.5886956160
 C          1.0149608314        0.0968692044        0.8047077097
 C          0.8805112144        0.4568682645        2.0738681445
 H          1.3587252443        1.3367946912        2.4599797486
 H          0.3109997630       -0.1427791149        2.7576071903
 C          0.3772097776       -1.1379043440        0.2746739746
 C          0.5035013351       -2.3811863790        1.1041801958
 O         -0.5809980929       -3.1530505178        0.9329295150
 C          0.1979132974       -1.3264199104       -1.2154243782
 C         -1.9734354272       -0.0563860480       -0.3383073982
 C         -1.5673313503        1.1829060040       -0.6043291809
 C         -3.4052889660       -0.3644725115        0.0168083528
 O          1.3928633056       -2.6688140602        1.8529331297
 C         -2.4470009179        2.3911581667       -0.5445721472
 C         -4.3366181897        0.8061886973       -0.2889148651
 H         -3.4586249808       -0.6112155847        1.0823098005
 H         -3.7432878517       -1.2408007892       -0.5419939817
 C         -3.7318757923        2.1058092962        0.2239538904
 H         -2.6875290334        2.7101299910       -1.5649365176
 H         -1.8965914650        3.2102169842       -0.0751759916
 H         -5.3108037566        0.6268045981        0.1695499278
 H         -4.4811330136        0.8819286751       -1.3686728908
 H         -4.4362109896        2.9305914202        0.1026881463
 H         -3.5060447824        2.0046655242        1.2872252022
 C          0.2754553769       -2.7255882006       -1.7987971744
 C         -1.0220210266       -1.1890678466       -0.3435759352
 H          0.5293033552       -0.5022233682       -1.8294419422
 C         -1.4271052275       -2.6481375816       -0.0999707302
 C         -1.0644283296       -3.3651602737       -1.4039944273
 H         -1.8274434545       -3.1542065866       -2.1537512371
 H         -0.9950687942       -4.4414380873       -1.2571777085
 H          1.1116369174       -3.2848937612       -1.3746670963
 H          0.4035325808       -2.6913644907       -2.8797239989
 H         -2.4532310695       -2.8172598017        0.2234125318
 H         -0.5412858240        1.3746395602       -0.8770952393
