  48
        -65.77305553
 Si         2.6246925447        1.9966152404       -0.1773060734
 C          2.3225680488        2.7635353577       -1.8895967257
 H          2.8984520884        3.6751767054       -2.0035604993
 H          1.2775240508        3.0151820776       -2.0422836693
 H          2.6171984519        2.0874869982       -2.6858899750
 C          2.1020127295        3.2055090785        1.2051843811
 H          2.7861161392        4.0453277525        1.2724882019
 H          2.0815918263        2.7227740247        2.1781281471
 H          1.1095978179        3.6098127115        1.0257284521
 C          4.4463806503        1.4850096624        0.0416918332
 O          1.6217364063        0.6949401196       -0.2526363935
 H          4.6874055692        0.6340127693       -0.5892689199
 H          4.6719128256        1.2012518280        1.0655891146
 H          5.1192486582        2.2934699734       -0.2259477955
 C          1.3176126498       -0.3223966003        0.5842982817
 C          1.8456248493       -0.4806067367        1.7913342924
 H          2.5833812725        0.2039726976        2.1651774482
 H          1.5760182864       -1.3112434509        2.4134704942
 C          0.3235430895       -1.2731379428        0.0146612483
 C          0.3940501764       -2.7026185987        0.4750564449
 O         -0.8232916127       -3.2616888486        0.4149145046
 C         -0.1825358067       -1.0628434005       -1.4027333358
 C         -1.9629820665        0.1729014530        0.1410212802
 C         -3.2505225231        0.2331228239       -0.1890579222
 C         -1.2754839207        1.2916764620        0.8715594342
 O          1.3560295930       -3.2944287052        0.8741386488
 C         -4.1467865563        1.3913586311        0.1199495695
 C         -2.2737657680        2.2569218829        1.5036029860
 H         -0.6341040811        1.8288851341        0.1667386164
 H         -0.6241468285        0.8748733011        1.6424793401
 C         -3.3458606487        2.6350331220        0.4899460143
 H         -4.8082634234        1.1158568157        0.9488110740
 H         -4.7858176657        1.5928612002       -0.7435828799
 H         -1.7496660291        3.1462212563        1.8583249230
 H         -2.7471832452        1.7798973572        2.3642074470
 H         -4.0085892392        3.4001316470        0.8981220969
 H         -2.8691980826        3.0414883737       -0.4043351355
 C         -0.4685963170       -2.2697215446       -2.2776052458
 C         -1.1509736172       -1.0015397698       -0.2524302620
 H          0.1548690988       -0.1534204709       -1.8778231319
 C         -1.7554022918       -2.4129006215       -0.2502543427
 C         -1.7915473256       -2.8234594101       -1.7255919377
 H         -2.6410927579       -2.3468232477       -2.2143892828
 H         -1.8773864811       -3.9033677420       -1.8320022440
 H          0.3268587680       -3.0135080686       -2.1977110735
 H         -0.5578511131       -1.9801248689       -3.3236756269
 H         -2.7106475745       -2.5064406444        0.2673217019
 H         -3.7184198962       -0.5897056724       -0.7121967013
