  48
        -65.77297169
 Si         2.9891311538        0.4115977671        0.4992622781
 C          4.1490951034       -1.0079300422        1.0126306999
 H          5.0944803315       -0.6400404999        1.3981371485
 H          4.3688800737       -1.6688932244        0.1788208717
 H          3.6875232088       -1.6133861221        1.7875036719
 C          3.7150553399        1.3575882736       -0.9948548193
 H          2.9375664991        1.8939480976       -1.5318148684
 H          4.2018461626        0.6945676561       -1.7045219933
 H          4.4549140518        2.0855676988       -0.6779346525
 C          2.6265904566        1.6061720422        1.9298429460
 O          1.4763877984       -0.1535273464        0.1907703559
 H          3.5439084390        2.0422529494        2.3100141693
 H          2.1363401763        1.0960798752        2.7524861899
 H          1.9806196280        2.4196478832        1.6149741125
 C          0.9385094331       -0.9932500723       -0.7120516820
 C          1.5583526441       -1.4847985034       -1.7755179686
 H          2.5812460837       -1.2387821542       -1.9885302927
 H          1.0557693135       -2.1588990008       -2.4427764048
 C         -0.4667734582       -1.3452096148       -0.3651921264
 C         -0.6269096066       -2.2841874978        0.7963753679
 O         -1.7562027321       -1.9948437898        1.4595034824
 C         -1.5781886498       -1.3102456831       -1.3861785139
 C         -1.4106904246        1.1329169578       -0.3420558380
 C         -0.6125577983        1.6597252753       -1.2670999820
 C         -2.1294634260        1.9886045901        0.6677722060
 O          0.1329073961       -3.1427229469        1.1417792773
 C         -0.3103757237        3.1195362132       -1.3903360057
 C         -2.1049001734        3.4665797570        0.2864024172
 H         -1.6537938758        1.8506061563        1.6441384029
 H         -3.1687275920        1.6616393345        0.7561801133
 C         -0.6977818781        3.8761688827       -0.1253971734
 H         -0.8547997851        3.5273115956       -2.2496529733
 H          0.7550913069        3.2479423129       -1.5969799688
 H         -2.4501045730        4.0673933692        1.1298376001
 H         -2.7860716051        3.6371532077       -0.5501001206
 H         -0.6454014349        4.9526508338       -0.2977837533
 H         -0.0007165465        3.6251585564        0.6761952542
 C         -2.7272724752       -2.2944431217       -1.2565225280
 C         -1.5959524096       -0.3313757365       -0.2379660443
 H         -1.3032344655       -0.9798558620       -2.3771780182
 C         -2.5289332297       -1.0109859361        0.7719277461
 C         -3.5632382927       -1.7362615665       -0.0944155515
 H         -4.2944867599       -1.0145081985       -0.4592270916
 H         -4.0774248630       -2.5122939596        0.4696292073
 H         -2.3629468148       -3.2970731022       -1.0243371078
 H         -3.3035673012       -2.3473261851       -2.1790221958
 H         -2.9680428243       -0.3672957355        1.5326989119
 H         -0.1172545253        1.0212111138       -1.9849779831
