  48
        -65.77292189
 Si         2.5617731204        2.2034349599       -0.2072829049
 C          2.9973720704        2.1988682613       -2.0573902377
 H          3.4760431056        1.2699281047       -2.3505197808
 H          3.6806843221        3.0083257200       -2.2890403113
 H          2.1168253370        2.3260704028       -2.6798716947
 C          1.5713640635        3.7745223420        0.2379634319
 H          2.0282007447        4.6614145117       -0.1896145254
 H          1.5094505486        3.9304134609        1.3111889877
 H          0.5541858328        3.7161524823       -0.1399964128
 C          4.1098582933        2.0547759684        0.8900645280
 O          1.6365075595        0.8453466174       -0.1179522371
 H          4.7008527791        1.1874832991        0.6094935501
 H          3.8479686404        1.9388705056        1.9379968246
 H          4.7477247646        2.9285368893        0.8044254226
 C          0.9360046388        0.2369473947        0.8630092838
 C          0.7433996073        0.7357653643        2.0764617468
 H          1.1730508319        1.6749621432        2.3685053371
 H          0.1725133007        0.1983840268        2.8088723382
 C          0.3648569731       -1.0752257520        0.4586286345
 C          0.4420484464       -2.1918600495        1.4570544310
 O         -0.6118471917       -3.0089504988        1.3068179757
 C          0.3144078561       -1.4696965060       -1.0012520368
 C         -1.9435815922       -0.1524353435       -0.4860762078
 C         -1.5414371046        1.0390410842       -0.9223967711
 C         -3.3881712511       -0.4342548208       -0.1618451819
 O          1.2716922215       -2.3532647612        2.3057023129
 C         -2.4416128316        2.2206726706       -1.0989892653
 C         -4.3192063268        0.6563494284       -0.6865056328
 H         -3.4939958324       -0.5211106695        0.9245471287
 H         -3.6843527876       -1.3909161800       -0.5994148564
 C         -3.7577177184        2.0317259277       -0.3541770854
 H         -2.6364740301        2.3669559343       -2.1672698434
 H         -1.9290287244        3.1180993441       -0.7430452563
 H         -5.3117751196        0.5293487904       -0.2505518168
 H         -4.4128802236        0.5623257773       -1.7704561646
 H         -4.4663314077        2.8132112314       -0.6337628860
 H         -3.5812206035        2.1005896072        0.7209495212
 C          0.4642580239       -2.9327029060       -1.3772079779
 C         -0.9766701452       -1.2490463794       -0.2592461434
 H          0.6832958331       -0.7283051794       -1.6942219562
 C         -1.3766637262       -2.6722440784        0.1495594486
 C         -0.8940106535       -3.5491392047       -1.0098277980
 H         -1.5939378231       -3.4618086098       -1.8412604452
 H         -0.8206909613       -4.5934500048       -0.7118625322
 H          1.2698036616       -3.4056813087       -0.8120526792
 H          0.6839732210       -3.0427806964       -2.4381418428
 H         -2.4232314013       -2.8250353470        0.4090414333
 H         -0.5046390799        1.2098106656       -1.1674975697
