  48
        -65.77273439
 Si         0.1533062967        3.3285189260       -0.2136630065
 C          1.8349961917        3.0692255472       -1.0725266353
 H          2.5025897457        2.5030733861       -0.4272036850
 H          2.3234553737        4.0098956701       -1.3045041278
 H          1.7325579823        2.5169102027       -2.0029556357
 C         -1.2045395243        3.9045562564       -1.4104109125
 H         -1.2764445319        3.2627207821       -2.2828193665
 H         -0.9982238114        4.9099726080       -1.7597834194
 H         -2.1770428966        3.9147631186       -0.9295982428
 C          0.3649082069        4.5201427538        1.2568817073
 O         -0.4492230844        1.8787309304        0.2929085682
 H          0.6757203168        5.5075163491        0.9313115747
 H          1.1173183787        4.1515893540        1.9489831383
 H         -0.5629917957        4.6355213959        1.8104725228
 C          0.1903118515        0.9261810376        1.0182326891
 C          0.2412421389        0.9592623335        2.3420816007
 H         -0.2024481637        1.7706069698        2.8888186830
 H          0.7398638388        0.1909201442        2.9018729363
 C          0.8301308478       -0.1531085783        0.2207014744
 C          2.1978437881       -0.6012737173        0.6420990761
 O          2.3628544914       -1.8998710901        0.3444873481
 C          0.5003857333       -0.3018849024       -1.2559029950
 C         -1.2402701971       -1.8406032484        0.0451112865
 C         -1.6496331081       -1.9140558843        1.3054163008
 C         -2.1104222200       -2.2431411770       -1.1158210416
 O          3.0380395580        0.0534418721        1.1917890229
 C         -3.0094283547       -2.3817745658        1.7161528851
 C         -3.5797695889       -2.3003701424       -0.7101805641
 H         -1.7859278616       -3.2254778928       -1.4768273714
 H         -1.9715125787       -1.5358906388       -1.9367498123
 C         -3.7271170030       -3.1017967462        0.5779968120
 H         -3.5925065786       -1.5103790196        2.0325074032
 H         -2.9208483087       -3.0383514536        2.5852810404
 H         -4.1692957469       -2.7514595826       -1.5105521404
 H         -3.9488023345       -1.2862073322       -0.5462207932
 H         -4.7815052060       -3.2345273583        0.8263490024
 H         -3.2868738018       -4.0912780470        0.4373500541
 C          1.5816633597       -0.7771425890       -2.2104247620
 C          0.1280807275       -1.3920441284       -0.3004087801
 H         -0.2478360301        0.3846950802       -1.6249109363
 C          1.2845377469       -2.3927686870       -0.4491069280
 C          1.6919391527       -2.2834337845       -1.9216350626
 H          0.9858346093       -2.8456623266       -2.5329368192
 H          2.6948226234       -2.6742562307       -2.0838986538
 H          2.5317050122       -0.2752439139       -2.0166119627
 H          1.3025365658       -0.5852292371       -3.2458541582
 H          1.0627005686       -3.4078403504       -0.1169635442
 H         -0.9917495026       -1.6015898392        2.1038005253
