  48
        -65.77266517
 Si         0.8513316592        3.2109263133        0.5041338012
 C          2.7021895495        3.4283049577        0.1326414012
 H          2.8945323173        3.5122764240       -0.9334561980
 H          3.2490934321        2.5630950316        0.4968557318
 H          3.1128142619        4.3113147543        0.6110579041
 C         -0.1985456861        4.5062686046       -0.4288653111
 H         -0.0428987328        5.4992942090       -0.0205111368
 H         -1.2588736021        4.2830231054       -0.3488707039
 H          0.0458310786        4.5496028287       -1.4866030444
 C          0.4658636495        3.2445453618        2.3623430351
 O          0.3472140412        1.6940477007        0.0895109353
 H          1.0705231151        2.5160625960        2.8931428128
 H         -0.5767730376        3.0159993411        2.5609608778
 H          0.6760141238        4.2213983516        2.7840844148
 C          0.7244199767        0.8404686354       -0.8852748837
 C          0.9513997174        1.1975540675       -2.1413354198
 H          0.8388436228        2.2203682717       -2.4482644075
 H          1.2616928018        0.4870714748       -2.8829934231
 C          0.8973797577       -0.5443157506       -0.3661003149
 C          1.8216190063       -0.6280907462        0.8202301510
 O          1.4534518706       -1.6384911259        1.6187070304
 C          0.8143362598       -1.7731389788       -1.2446507973
 C         -1.6395996018       -1.4712245822       -0.2735782691
 C         -2.4154954837       -2.5367225260       -0.0955696461
 C         -2.1950877177       -0.1313763704       -0.6670399711
 O          2.7376018429        0.1021681281        1.0721005104
 C         -3.9011701405       -2.5348524853       -0.2754321782
 C         -3.7078470285       -0.0656862328       -0.4765711290
 H         -1.9412266459        0.0630285279       -1.7143673556
 H         -1.7173018390        0.6469863242       -0.0706853272
 C         -4.3645603840       -1.3110564329       -1.0582807743
 H         -4.3786052094       -2.5475152480        0.7105379124
 H         -4.2033855655       -3.4520136104       -0.7875232337
 H         -4.0983394135        0.8334145205       -0.9562273191
 H         -3.9375753040       -0.0058998151        0.5891683327
 H         -5.4519429410       -1.2279504083       -1.0151296959
 H         -4.0740484546       -1.4164775103       -2.1055109087
 C          1.7377552830       -2.9449179232       -0.9598312463
 C         -0.1711116532       -1.5918093286       -0.1177845377
 H          0.4969124837       -1.6112061609       -2.2641292785
 C          0.4424693668       -2.4366895654        1.0080941014
 C          1.1314155501       -3.6020060828        0.2904804063
 H          0.3861615216       -4.3457558608        0.0091870898
 H          1.8792274951       -4.0700315304        0.9282388569
 H          2.7563880665       -2.6041697294       -0.7637198524
 H          1.7671356123       -3.6343301950       -1.8023431701
 H         -0.2551217750       -2.7399947998        1.7894573646
 H         -1.9814181403       -3.4826368754        0.1994356821
