  48
        -65.77269727
 Si         0.9800148483        3.0803749365        0.8938456220
 C         -0.0125398566        4.5304823648        0.1424074232
 H          0.1415218413        5.4416289412        0.7109698382
 H         -1.0786700645        4.3205637791        0.1452241800
 H          0.2758636219        4.7392102449       -0.8840774780
 C          0.5823142770        2.8893439134        2.7402586860
 H          0.8301901858        3.7944423250        3.2838787690
 H          1.1510898320        2.0741532584        3.1759154832
 H         -0.4706514705        2.6824543684        2.9055390926
 C          2.8383956600        3.2682036767        0.5456371767
 O          0.4226074979        1.6433134417        0.3020835864
 H          3.2947109863        4.0319566839        1.1666706279
 H          3.0308539674        3.5293306051       -0.4914407235
 H          3.3431785804        2.3266201242        0.7437088226
 C          0.6939152562        0.9456485211       -0.8208518264
 C          0.8442862551        1.4888891713       -2.0202724119
 H          0.7531072517        2.5498996474       -2.1570500562
 H          1.0708533268        0.8933785322       -2.8835904005
 C          0.8516429017       -0.5086669216       -0.5417465776
 C          1.8982446252       -0.8077043012        0.4990870975
 O          1.5756816038       -1.9219174196        1.1680197544
 C          0.6109952144       -1.5787175602       -1.5832166214
 C         -1.7017951847       -1.3660298242       -0.2985632863
 C         -2.5004229401       -2.4182109391       -0.1421789946
 C         -2.2373766789        0.0251623958       -0.4899245659
 O          2.8698983397       -0.1532822299        0.7510451897
 C         -3.9953772400       -2.3479839080       -0.1520382478
 C         -3.7186820406        0.1201744203       -0.1348344425
 H         -2.0821523236        0.3233548397       -1.5321600125
 H         -1.6697053436        0.7185585231        0.1314568859
 C         -4.4851051465       -1.0382433845       -0.7600193786
 H         -4.3631944043       -2.4404900608        0.8757569136
 H         -4.3921342286       -3.1997127220       -0.7104884116
 H         -4.1172213886        1.0752456880       -0.4812826472
 H         -3.8351763906        0.0803531633        0.9500578099
 H         -5.5575595867       -0.9243947264       -0.5925502119
 H         -4.3093351312       -1.0481403718       -1.8376445162
 C          1.5006197805       -2.8096226715       -1.5950912453
 C         -0.2322563763       -1.5493746828       -0.3325635764
 H          0.1894026920       -1.2459075612       -2.5202499897
 C          0.4631177810       -2.5806709566        0.5678469042
 C          1.0058138675       -3.6382886607       -0.3987876431
 H          0.1956189174       -4.3014529754       -0.7013574568
 H          1.7953359065       -4.2273969445        0.0644181525
 H          2.5506004847       -2.5371451700       -1.4705872179
 H          1.4007808261       -3.3561059212       -2.5317708774
 H         -0.1535620611       -2.9819079855        1.3726219457
 H         -2.0806898920       -3.4044236805        0.0034186301
