  48
        -65.77258069
 Si         0.9060780279        3.4305792386       -0.5512112769
 C          2.1935252876        3.5595069141       -1.9426111482
 H          1.7859327327        3.2332715201       -2.8942829123
 H          3.0659295322        2.9492122622       -1.7316838577
 H          2.5281274726        4.5842245312       -2.0616249916
 C         -0.5710967093        4.5884379805       -0.9041748289
 H         -1.0918336410        4.2931653653       -1.8109462001
 H         -0.2412707905        5.6137278518       -1.0368074778
 H         -1.2971856431        4.5841002860       -0.0958267897
 C          1.6396697407        3.7566884726        1.1729985745
 O          0.4387632507        1.8521462611       -0.6742880021
 H          0.8701651149        4.0184965741        1.8938769541
 H          2.3650019591        4.5636583276        1.1644865007
 H          2.1362588249        2.8633421980        1.5435947870
 C         -0.0417375944        0.9987918713        0.2535634987
 C         -1.0183859620        1.2836500697        1.1021793107
 H         -1.4851311669        2.2507533555        1.1058277734
 H         -1.3652917687        0.5577937745        1.8123545921
 C          0.6547033271       -0.3181118405        0.2490290833
 C          1.6002182762       -0.5891899123        1.3786420649
 O          1.6344750380       -1.9070695240        1.6325472361
 C          0.9403948779       -1.0038923567       -1.0714897463
 C         -1.4544860735       -1.8397709809       -0.2024757579
 C         -2.1371452357       -1.4692866337       -1.2804789752
 C         -2.1344810652       -2.4240320073        1.0089771589
 O          2.2125564430        0.2171214959        2.0203994374
 C         -3.6231861320       -1.5713166824       -1.4142878481
 C         -3.6181725704       -2.0703312927        1.0267658766
 H         -1.6459817532       -2.0567251049        1.9148095081
 H         -2.0235296641       -3.5136477238        0.9960756232
 C         -4.2407973778       -2.4316692715       -0.3162285152
 H         -3.8742243647       -1.9744379273       -2.3988602685
 H         -4.0385274246       -0.5585315249       -1.3695533536
 H         -3.7344322394       -0.9991296904        1.2018968528
 H         -4.1175248569       -2.6048660500        1.8368616624
 H         -4.0508624461       -3.4861760066       -0.5268721500
 H         -5.3216502015       -2.2832482408       -0.2898517107
 C          2.2065731252       -1.8288693808       -1.2165855005
 C          0.0055686545       -1.6506382983       -0.0906445017
 H          0.5729527746       -0.4848875196       -1.9439435634
 C          0.9133754528       -2.6458052295        0.6444922400
 C          1.9053773264       -3.1107389106       -0.4252083727
 H          1.4210395391       -3.8510370287       -1.0622658539
 H          2.7934078461       -3.5514235774        0.0243002783
 H          3.0679861355       -1.3057614805       -0.7967814164
 H          2.4170446437       -2.0414813653       -2.2637461958
 H          0.4041935503       -3.4633298826        1.1544736859
 H         -1.6241996307       -1.0360860338       -2.1271502031
