  48
        -65.77253309
 Si         3.0941086450        0.0604250664       -0.2609946890
 C          3.8852202906       -1.0942757624        1.0314684254
 H          4.9646552535       -0.9875712933        1.0629586263
 H          3.6614092085       -2.1356578172        0.8175625750
 H          3.5060530888       -0.8840159017        2.0277961706
 C          3.9389437357       -0.1491564314       -1.9613540891
 H          3.2625891903        0.1158195215       -2.7695828995
 H          4.2714620943       -1.1685394142       -2.1353454890
 H          4.8127307735        0.4895446938       -2.0445815192
 C          3.2105647949        1.8805688659        0.2666983697
 O          1.4644554889       -0.1940526661       -0.3297746087
 H          2.7834623200        2.0558775658        1.2485423217
 H          2.7068671917        2.5309889299       -0.4410823499
 H          4.2508201078        2.1849310938        0.3078596032
 C          0.7601295879       -1.3009149992       -0.6602627045
 C          1.2595733468       -2.3707640888       -1.2622246219
 H          2.2997725197       -2.4399576661       -1.5159916858
 H          0.6322073043       -3.2114829800       -1.4861501695
 C         -0.6845642921       -1.2671604985       -0.2953462147
 C         -1.1461154399       -2.3264063871        0.6656655691
 O         -2.2130168176       -1.8834437485        1.3490347119
 C         -1.7022077042       -0.7985230422       -1.3314885197
 C         -1.1412296475        1.3461678199        0.1658592367
 C         -1.3459190135        2.2705445084       -0.7647308798
 C         -0.5243509684        1.6670510738        1.4985206038
 O         -0.6442716605       -3.3952806457        0.8655513673
 C         -1.0106703580        3.7187033035       -0.5977701092
 C         -0.6357456876        3.1562489135        1.8097207909
 H          0.5262023349        1.3670945132        1.4654763903
 H         -1.0033872017        1.0772267227        2.2840162015
 C         -0.1299592559        3.9684329496        0.6232387843
 H         -1.9488588494        4.2773220974       -0.5013047046
 H         -0.5162869052        4.0852852243       -1.5012980092
 H         -0.0575213278        3.3932424941        2.7047208693
 H         -1.6799898878        3.4116864879        2.0048898833
 H         -0.1237601962        5.0331912595        0.8646840054
 H          0.8934618339        3.6669087442        0.3999424842
 C         -3.0529883085       -1.4875543817       -1.4064593990
 C         -1.5563636051       -0.0580589693       -0.0385130007
 H         -1.2748725930       -0.4077019258       -2.2436321290
 C         -2.6876118610       -0.6474556999        0.8212426562
 C         -3.8058321992       -0.9473781631       -0.1809855967
 H         -4.3221743606       -0.0189789454       -0.4253998489
 H         -4.5213746345       -1.6591257521        0.2267946114
 H         -2.9480238531       -2.5728580096       -1.3512792267
 H         -3.5660077837       -1.2440404948       -2.3358037641
 H         -3.0075191261       -0.0269628109        1.6593469934
 H         -1.8105848298        2.0002989197       -1.7036866003
