  48
        -65.77249636
 Si         0.9740466482        3.4046665019       -0.7555660043
 C         -0.4226771526        4.5019653430       -1.4579786110
 H         -0.7634555454        4.1325635323       -2.4212267343
 H         -0.0825113379        5.5222555008       -1.6020417852
 H         -1.2861926707        4.5383836064       -0.7995175987
 C          1.3918814509        3.8847158095        1.0361479682
 H          2.0514379708        4.7447641999        1.0873258894
 H          1.8829961287        3.0546726849        1.5377703185
 H          0.4989311105        4.1239902870        1.6070590142
 C          2.4875128586        3.4438656839       -1.9031396183
 O          0.5363270899        1.8146094847       -0.8290183298
 H          3.3155160438        2.8833724239       -1.4809794484
 H          2.8243496469        4.4626465405       -2.0608042996
 H          2.2620737187        3.0164436665       -2.8751156542
 C         -0.0819038842        1.0218259209        0.0697962227
 C         -1.1766566251        1.3535032341        0.7378347018
 H         -1.6389800870        2.3130932855        0.6006679326
 H         -1.6294089762        0.6747632431        1.4344830537
 C          0.6142144948       -0.2826562469        0.2559711268
 C          1.5176453765       -0.3999096795        1.4449894706
 O          1.5600605126       -1.6776478725        1.8548637759
 C          0.9619316549       -1.1167119689       -0.9613428536
 C         -1.4537834205       -1.8943443911       -0.0948751520
 C         -2.0928174657       -1.6900275450       -1.2416649962
 C         -2.1771474456       -2.3360026474        1.1515593668
 O          2.0901435872        0.4876904051        2.0118654296
 C         -3.5678997363       -1.8533100905       -1.4265479351
 C         -3.6678882121       -2.0263235645        1.0573750653
 H         -1.7400852310       -1.8419951358        2.0228999918
 H         -2.0416055834       -3.4146091522        1.2853535550
 C         -4.2176264505       -2.5786254664       -0.2520287938
 H         -3.7612061339       -2.3912675611       -2.3582953954
 H         -4.0089778188       -0.8565811549       -1.5370642975
 H         -3.8184954244       -0.9454082976        1.0839746375
 H         -4.1924284616       -2.4645618294        1.9083316458
 H         -3.9947080297       -3.6459148573       -0.3120505462
 H         -5.3015260779       -2.4585418030       -0.2933390112
 C          2.2420134114       -1.9327677174       -0.9592274477
 C         -0.0040839894       -1.6557320179        0.0540360626
 H          0.6228447982       -0.7121530269       -1.9031619946
 C          0.8867307962       -2.5408546526        0.9370100809
 C          1.9245812037       -3.1151750288       -0.0312176283
 H          1.4735134994       -3.9339051650       -0.5922048460
 H          2.7992553065       -3.4849338549        0.5008330067
 H          3.0806607075       -1.3495401868       -0.5741021934
 H          2.4948245257       -2.2658756122       -1.9648220349
 H          0.3675023020       -3.2993164862        1.5225732960
 H         -1.5501522726       -1.3578523402       -2.1150388086
