  48
        -65.77234450
 Si         0.3068344313        3.2909758244        0.3105046748
 C         -1.1447754449        4.0823927443       -0.6244236781
 H         -1.3548930947        3.5698549275       -1.5579136622
 H         -0.9216967770        5.1163958240       -0.8617892595
 H         -2.0528655892        4.0684453828       -0.0307501608
 C          0.7423683304        4.2410933049        1.9019851926
 H          1.0745797646        5.2513571909        1.6864278138
 H          1.5414281763        3.7424701484        2.4440266704
 H         -0.1125633071        4.3135599163        2.5687320859
 C          1.8684628726        3.1055193496       -0.7661848374
 O         -0.3141392281        1.8040243445        0.6643651475
 H          1.6387009339        2.6978726383       -1.7470495098
 H          2.5759062538        2.4318862592       -0.2882997434
 H          2.3718255939        4.0545608075       -0.9179840053
 C          0.3293244465        0.7347814583        1.1988827900
 C          0.5128394316        0.5980903435        2.5052077215
 H          0.1805624137        1.3583284565        3.1877649761
 H          1.0008219696       -0.2658715962        2.9142803312
 C          0.8311808327       -0.2595224467        0.2133612501
 C          2.2010695082       -0.8136815801        0.4835173610
 O          2.3028096263       -2.0491737713       -0.0231732365
 C          0.4491768176       -0.1519470445       -1.2491734035
 C         -1.3330054409       -1.8223566972       -0.2338824704
 C         -1.8088659973       -2.9068285169       -0.8409267976
 C         -2.1947711231       -0.9538556203        0.6398954704
 O          3.0915000042       -0.2768782017        1.0799953547
 C         -3.2248649006       -3.3793270389       -0.7305745898
 C         -3.5076688616       -1.6365151934        1.0134948968
 H         -2.3966175939       -0.0143192785        0.1159770364
 H         -1.6455992819       -0.6976547610        1.5473424644
 C         -4.1397764197       -2.2733334674       -0.2168412806
 H         -3.2631877672       -4.2378119240       -0.0510569443
 H         -3.5635334690       -3.7312539855       -1.7083513709
 H         -4.1847553559       -0.9058855348        1.4590101144
 H         -3.3141710452       -2.4128906840        1.7565925057
 H         -5.1232708091       -2.6807082222        0.0236643372
 H         -4.2666231762       -1.5150532897       -0.9920078541
 C          1.4713394467       -0.5025083652       -2.3153555946
 C          0.0598550835       -1.3808228662       -0.4681713441
 H         -0.2920487835        0.5998762107       -1.4775022583
 C          1.1733286136       -2.3733616648       -0.8318964483
 C          1.5265129704       -2.0383539441       -2.2843936666
 H          0.7716605810       -2.4627943206       -2.9461787665
 H          2.5039843131       -2.4336372106       -2.5549338596
 H          2.4493048160       -0.0754005025       -2.0834659443
 H          1.1614328621       -0.1305428469       -3.2910539763
 H          0.9401234619       -3.4232386266       -0.6546270351
 H         -1.1664342260       -3.5114132432       -1.4661731353
