  48
        -65.77232039
 Si         2.1225442492       -1.4591152489       -0.0803262686
 C          3.8174216962       -0.7879796709       -0.6237187358
 H          4.6090332838       -1.2721083519       -0.0624529327
 H          3.9080071408        0.2807502462       -0.4574836661
 H          4.0002299621       -0.9723950156       -1.6771765636
 C          1.7350933403       -0.8638610847        1.6892899713
 H          0.8845351248       -1.3883790444        2.1143890262
 H          1.5134667872        0.2003472037        1.7100677290
 H          2.5794173310       -1.0358010970        2.3497688271
 C          2.0326576125       -3.3536024230       -0.1986803569
 O          1.1507082987       -0.7576767231       -1.2096880885
 H          2.6841757852       -3.8344163250        0.5238004130
 H          2.3218330546       -3.7015778180       -1.1866487937
 H          1.0192261442       -3.6990482520       -0.0139444520
 C         -0.1474825365       -0.8276775313       -1.5666042244
 C         -0.5016261143       -1.0929502996       -2.8181521359
 H          0.2408249038       -1.2988221848       -3.5668542240
 H         -1.5334820402       -1.1265940346       -3.1120676812
 C         -1.1510250535       -0.5739843731       -0.4958212369
 C         -1.3443733652       -1.6769519911        0.4998615748
 O         -1.6954595427       -1.1681308443        1.6889090681
 C         -2.3343091704        0.3380396673       -0.7341229056
 C         -0.3876337962        1.8715393018        0.2171363565
 C          0.1163328442        2.5081498358        1.2742082101
 C          0.0133557377        2.3994878056       -1.1311753063
 O         -1.1748012228       -2.8498884797        0.3175653141
 C          1.0585454256        3.6427482546        1.0357985513
 C          1.5375927814        2.5776297683       -1.2230534797
 H         -0.4680220908        3.3724692824       -1.2746352669
 H         -0.3116730366        1.7406529591       -1.9347994600
 C          2.1433279038        3.1926605337        0.0474612962
 H          1.5155653883        3.9747316036        1.9681719166
 H          0.5159117856        4.4907764862        0.6056426125
 H          1.7570098836        3.2024281112       -2.0902459238
 H          1.9793465238        1.5979898994       -1.4012929535
 H          2.7692139364        2.4529185187        0.5497003308
 H          2.7775114969        4.0439605332       -0.2038926128
 C         -3.6585613555        0.0288476575       -0.0579582050
 C         -1.2994069742        0.7207794279        0.2937852209
 H         -2.3664308778        0.8334750226       -1.6933698835
 C         -1.9332735987        0.2359399149        1.6039365979
 C         -3.4349895735        0.4527077784        1.4016033605
 H         -3.6638088798        1.5099912741        1.5355427490
 H         -4.0191385833       -0.1333378780        2.1087165150
 H         -3.8949948703       -1.0352633024       -0.1205706807
 H         -4.4728914921        0.5849907373       -0.5199725625
 H         -1.5453670840        0.6861067962        2.5162750431
 H         -0.0993671425        2.2269930508        2.2925689383
