  48
        -65.77205646
 Si         0.3898940362        3.4893165027        0.5464355925
 C          1.8130803192        3.4877700114       -0.7203068986
 H          2.6223820559        2.8535034112       -0.3737407651
 H          2.2156068164        4.4824185965       -0.8811668686
 H          1.4808633984        3.1064402582       -1.6832594774
 C         -0.9668282786        4.6886097309       -0.0666588502
 H         -1.2716148628        4.4654296601       -1.0856631289
 H         -0.6198669798        5.7163797967       -0.0493079756
 H         -1.8525137083        4.6331160291        0.5596946569
 C          0.9349388982        3.8928415363        2.3140610610
 O         -0.2647363869        1.9827867388        0.6993335325
 H          0.1020431737        3.8468990766        3.0084847836
 H          1.3610773106        4.8885716959        2.3713190028
 H          1.6852909859        3.1836107262        2.6456283325
 C         -0.4640551909        1.0050942611       -0.2061945250
 C         -1.5322182526        0.9927235837       -0.9966820377
 H         -2.2421770806        1.7973776933       -0.9484157842
 H         -1.7362460031        0.1882136756       -1.6761945691
 C          0.5664796158       -0.0707478537       -0.2065735610
 C          1.6763308075       -0.0187346180        0.8047534672
 O          2.0093972677       -1.2712762293        1.1711499140
 C          0.9093484782       -0.8006522066       -1.5039745980
 C         -1.1189828375       -2.1246552303       -0.3770457059
 C         -1.6476593032       -2.6823580557       -1.4600898240
 C         -1.8399797223       -2.0613027919        0.9413279584
 O          2.2237324117        0.9405554869        1.2669077082
 C         -3.0086124966       -3.3011793012       -1.5005621999
 C         -3.3348369322       -2.3072027079        0.7638539500
 H         -1.6686875830       -1.0824352409        1.3954685129
 H         -1.4172187271       -2.8122700453        1.6171008792
 C         -3.5556001576       -3.5457449257       -0.0972028711
 H         -2.9662763713       -4.2382823514       -2.0615434479
 H         -3.6801694747       -2.6312909975       -2.0487389405
 H         -3.7859886881       -1.4418761112        0.2748532361
 H         -3.8088308662       -2.4309835014        1.7388248263
 H         -3.0353235393       -4.3936350180        0.3532389352
 H         -4.6176774603       -3.7910730183       -0.1492016091
 C          2.3252791258       -1.3148766668       -1.7023407105
 C          0.2403612355       -1.5426103116       -0.3926152248
 H          0.3572652511       -0.4820835896       -2.3755975064
 C          1.4061020546       -2.2399727041        0.3207144426
 C          2.3918981102       -2.5624658729       -0.8067215759
 H          2.0419579770       -3.4426398772       -1.3462375754
 H          3.3902745584       -2.7532622080       -0.4174853877
 H          3.0647698384       -0.5738259083       -1.3925055155
 H          2.5093268933       -1.5581702602       -2.7478940913
 H          1.1305649040       -3.1005895431        0.9311593336
 H         -1.0909300227       -2.6933923009       -2.3880445760
