  48
        -65.77202720
 Si         1.9622319297       -2.9189627615       -0.4948532301
 C          0.6963766904       -3.3125360550       -1.8651260752
 H         -0.2803367775       -3.5054516420       -1.4341099622
 H          0.9823542223       -4.1864620758       -2.4411748017
 H          0.5961998934       -2.4797794181       -2.5576943812
 C          3.6861200711       -2.7634988961       -1.3069228733
 H          4.4318705985       -2.4450303968       -0.5844148287
 H          3.6854404447       -2.0389268213       -2.1169689366
 H          4.0156123778       -3.7116937420       -1.7183019983
 C          1.9662335031       -4.1642378083        0.9306054324
 O          1.6190274157       -1.4893845308        0.2531851243
 H          0.9856056103       -4.2113942107        1.3907922355
 H          2.6823310587       -3.8875034070        1.6977808166
 H          2.2238817422       -5.1569596240        0.5776808498
 C          1.0932660478       -0.3456094160       -0.2257456071
 C          1.8675544829        0.6307877711       -0.6879926367
 H          2.9336881194        0.5002313664       -0.7135513608
 H          1.4705017973        1.5694044608       -1.0233638375
 C         -0.3932769143       -0.2530309136       -0.1769201615
 C         -1.1678087526       -1.2835463670        0.5944780462
 O         -2.2741587628       -0.7180272288        1.1153045153
 C         -1.1360622393        0.3734837932       -1.3574968080
 C         -0.5938615282        2.3588490718        0.3515473981
 C         -0.5968940633        3.3854967538       -0.4910123862
 C         -0.0270484850        2.4461889216        1.7414434045
 O         -0.9068244454       -2.4372882626        0.7787626131
 C         -0.0313714011        4.7314205162       -0.1652964088
 C          0.1541713642        3.8965870921        2.1779434812
 H          0.9368431180        1.9272384011        1.7516290086
 H         -0.6815288304        1.9165196677        2.4381838076
 C          0.8567765814        4.6794184110        1.0746298521
 H         -0.8594746453        5.4298262126       -0.0020120616
 H          0.5347942089        5.1049898175       -1.0224632069
 H          0.7333428544        3.9359899275        3.1017291106
 H         -0.8225060452        4.3455990938        2.3714843737
 H          1.0866492300        5.6919246277        1.4106323785
 H          1.7970063834        4.1823643121        0.8283196612
 C         -2.5168689919       -0.1479315435       -1.7160990030
 C         -1.1639002776        1.0469411867       -0.0240455150
 H         -0.5051716271        0.7419543062       -2.1532346857
 C         -2.4958318518        0.5809249479        0.5789630877
 C         -3.4271330601        0.4475083301       -0.6301107861
 H         -3.7768479451        1.4379028262       -0.9217507380
 H         -4.2845326021       -0.1827701317       -0.4014248831
 H         -2.5473621207       -1.2390940218       -1.6944563296
 H         -2.8108613797        0.1778007401       -2.7129790629
 H         -2.8920449832        1.2127900524        1.3749873629
 H         -1.0330916883        3.2751067696       -1.4751705618
