  48
        -65.77175881
 Si         0.5266637593        3.0996560341        0.3451065272
 C          0.2824753859        2.3813366109        2.0949409238
 H          1.1774618867        1.8598806659        2.4202565268
 H         -0.5446690342        1.6771309110        2.1391166890
 H          0.0798068675        3.1643186805        2.8189701981
 C          1.9909864184        4.2967737387        0.2594660248
 H          2.9127703198        3.7773778327        0.4994256994
 H          1.8706758241        5.1122857128        0.9645194916
 H          2.1019989260        4.7264020632       -0.7309889486
 C         -1.1174028113        3.9048823382       -0.2061910750
 O          0.9698377246        1.9585547836       -0.7471519736
 H         -1.9316508595        3.1848110832       -0.2302933308
 H         -1.0293999282        4.3290774954       -1.2022010451
 H         -1.4122757487        4.7060796823        0.4630931309
 C          0.4503390761        0.7951594900       -1.1815512276
 C         -0.4593435419        0.7630536526       -2.1503253530
 H         -0.8113293985        1.6807436009       -2.5838338029
 H         -0.8748478789       -0.1530912875       -2.5222224828
 C          0.9701143276       -0.4242165596       -0.5025563056
 C          1.9579189647       -0.2608782329        0.6177214507
 O          1.7310812445       -1.2032420017        1.5560738432
 C          1.0426450278       -1.7582097293       -1.2404528749
 C         -1.3962566987       -1.5900237620       -0.1727928754
 C         -2.0584825708       -2.3612685809       -1.0272313263
 C         -2.0853704445       -0.6499123734        0.7774693942
 O          2.8191576872        0.5600094355        0.7403202515
 C         -3.5489711331       -2.3795225464       -1.1496864158
 C         -3.5690435205       -0.9775330661        0.9117464413
 H         -1.9597026377        0.3699012381        0.3976801107
 H         -1.5958287415       -0.6934767151        1.7540457653
 C         -4.1783911676       -1.1655264096       -0.4727084536
 H         -3.9286944694       -3.3000083768       -0.6929697024
 H         -3.8261733982       -2.4111011465       -2.2063784692
 H         -4.0788098252       -0.1754707363        1.4480581594
 H         -3.6899772030       -1.8984318026        1.4862777864
 H         -5.2592519142       -1.2970687589       -0.4004360283
 H         -3.9839379902       -0.2742186623       -1.0724508568
 C          2.1353764673       -2.7434070946       -0.8602723328
 C          0.0805652431       -1.5927241234       -0.1089226702
 H          0.7094035942       -1.7431803146       -2.2670906298
 C          0.8279791123       -2.1979077827        1.0860243444
 C          1.6493583171       -3.3359763178        0.4722010156
 H          0.9983455943       -4.1928600475        0.2981365904
 H          2.4657878149       -3.6328463247        1.1279288918
 H          3.0967226226       -2.2415390624       -0.7355634984
 H          2.2518974690       -3.5107293009       -1.6243210696
 H          0.1987392484       -2.5058206866        1.9222246418
 H         -1.5164900020       -3.0327087972       -1.6799268095
