  48
        -65.77175113
 Si         0.5166941905        3.0319355137        0.3243770678
 C          0.4144009570        2.3383119355        2.0974494155
 H          0.1661665810        3.1166554369        2.8122431440
 H          1.3685754915        1.9140538660        2.3943377618
 H         -0.3361900432        1.5581136679        2.1941831978
 C          1.8729835308        4.3423856344        0.1531541697
 H          2.8447957792        3.9073447088        0.3610643447
 H          1.7153021013        5.1593764843        0.8490941053
 H          1.9056053645        4.7597082207       -0.8481621290
 C         -1.2084372403        3.6970351421       -0.1640795561
 O          1.0008498920        1.9120029662       -0.7718663220
 H         -1.1894654664        4.1392814948       -1.1558739892
 H         -1.5504033571        4.4612131693        0.5258333621
 H         -1.9586663379        2.9100925957       -0.1750258326
 C          0.5186915421        0.7386078001       -1.2246900095
 C         -0.3335661153        0.6944952831       -2.2438008016
 H         -0.6651362854        1.6073779747       -2.7028420932
 H         -0.7216085509       -0.2256064072       -2.6346376637
 C          1.0003820658       -0.4689433976       -0.4993372840
 C          1.9802265665       -0.2889657306        0.6251653954
 O          1.7099876472       -1.1788787825        1.6021407510
 C          1.0393290010       -1.8352443077       -1.1756984941
 C         -1.4058396315       -1.5312821175       -0.1614428976
 C         -2.0797391984       -2.2769774043       -1.0294119074
 C         -2.0758744137       -0.5510511970        0.7613327980
 O          2.8691708690        0.5057721124        0.7182637204
 C         -3.5647950912       -2.2221656998       -1.1970235636
 C         -3.5794709195       -0.7934279709        0.8449267990
 H         -1.8794278929        0.4583452394        0.3840643267
 H         -1.6252798379       -0.6168304811        1.7553090329
 C         -4.1492742384       -0.9658636820       -0.5581567285
 H         -4.0061568958       -3.1138792619       -0.7387681888
 H         -3.8107585517       -2.2563502853       -2.2613046600
 H         -4.0614556744        0.0431948808        1.3534713180
 H         -3.7727255600       -1.6982899457        1.4251190030
 H         -5.2376635922       -1.0361896388       -0.5231354219
 H         -3.8839089913       -0.0954359200       -1.1614123296
 C          2.0949514548       -2.8359418714       -0.7350086607
 C          0.0678099973       -1.5903115824       -0.0663546151
 H          0.7211427095       -1.8590499715       -2.2066713848
 C          0.7794541628       -2.1637101114        1.1650247926
 C          1.5709918209       -3.3539235503        0.6140652205
 H          0.8943062960       -4.1958403942        0.4669927888
 H          2.3678682676       -3.6483429851        1.2944770001
 H          3.0697118248       -2.3590173364       -0.6167700587
 H          2.1985439908       -3.6396278261       -1.4626443279
 H          0.1309140173       -2.4130896891        2.0059074856
 H         -1.5524817446       -2.9796102514       -1.6608826540
