  48
        -65.77173551
 Si         0.5083914987        3.1425973822        0.3635146180
 C          0.1501396960        2.3925660750        2.0805927510
 H          0.9969122602        1.8072377394        2.4257223014
 H         -0.7203772272        1.7412806902        2.0693431997
 H         -0.0338937247        3.1659196783        2.8196574883
 C          2.0500573360        4.2409523192        0.3616593363
 H          2.2208096177        4.6916241072       -0.6107557210
 H          2.9262637998        3.6521277290        0.6118363764
 H          1.9617163396        5.0412595099        1.0885303764
 C         -1.0583760105        4.0687601723       -0.2208171641
 O          0.9107921210        2.0015461151       -0.7452292522
 H         -0.9138683975        4.4938055584       -1.2098530977
 H         -1.3110457151        4.8836290024        0.4492878306
 H         -1.9217236521        3.4100413683       -0.2722151961
 C          0.3815252646        0.8351177415       -1.1570763711
 C         -0.5687196498        0.7937321246       -2.0858549951
 H         -0.9485027274        1.7076103713       -2.5037596485
 H         -0.9896841283       -0.1274493200       -2.4391206593
 C          0.9452761381       -0.3813806855       -0.5075590936
 C          1.9404117867       -0.2122230442        0.6051310204
 O          1.7599193798       -1.1874491761        1.5197795632
 C          1.0550451063       -1.6929252653       -1.2819415427
 C         -1.3740306112       -1.6459675982       -0.1775416737
 C         -2.0167781851       -2.4412979703       -1.0247594465
 C         -2.0869160272       -0.7422271378        0.7901691655
 O          2.7723297163        0.6362211466        0.7428139198
 C         -3.5069673415       -2.5250339734       -1.1212893237
 C         -3.5501759297       -1.1410192498        0.9528603764
 H         -2.0184662887        0.2831464067        0.4109148532
 H         -1.5752990100       -0.7645442568        1.7559991064
 C         -4.1789987127       -1.3479642838       -0.4202129197
 H         -3.8363569790       -3.4665578944       -0.6683671324
 H         -3.8013750321       -2.5583713661       -2.1733124172
 H         -4.0861335839       -0.3678077620        1.5057905919
 H         -3.6150764396       -2.0705883661        1.5224371684
 H         -5.2504830078       -1.5321681228       -0.3263916302
 H         -4.0409374385       -0.4435366963       -1.0158860766
 C          2.1859706901       -2.6491396535       -0.9422018330
 C          0.1027338811       -1.5903562041       -0.1350612202
 H          0.7070530774       -1.6605943188       -2.3034400678
 C          0.8864480063       -2.2005915370        1.0340360087
 C          1.7388793893       -3.2926256289        0.3802889157
 H          1.1159570219       -4.1671909586        0.1920129187
 H          2.5738912784       -3.5773154818        1.0177700909
 H          3.1311545652       -2.1176502323       -0.8165784873
 H          2.3182870244       -3.3917590391       -1.7277861000
 H          0.2787687165       -2.5521331583        1.8690040558
 H         -1.4572736329       -3.0849804653       -1.6905897107
