  48
        -65.77171253
 Si         0.4976934988        3.1715638353        0.3776201670
 C          0.0680360821        2.4045763830        2.0708421205
 H          0.8878652063        1.7911567322        2.4319816992
 H         -0.8185212525        1.7770356129        2.0205288689
 H         -0.1190182047        3.1701838239        2.8171147007
 C          2.0835725442        4.2036324370        0.4267534697
 H          2.9281252990        3.5733997606        0.6847340997
 H          2.0138572501        4.9958125721        1.1644992529
 H          2.2934727634        4.6614225183       -0.5346251245
 C         -1.0148590944        4.1738903338       -0.2230043120
 O          0.8704554717        2.0317360074       -0.7431246293
 H         -1.9104408185        3.5602539879       -0.2795872721
 H         -0.8401790396        4.5875047510       -1.2119845735
 H         -1.2306510378        5.0028843873        0.4426359009
 C          0.3356159118        0.8629468432       -1.1393953719
 C         -0.6389337288        0.8152904721       -2.0424136471
 H         -1.0354587001        1.7266656347       -2.4501901372
 H         -1.0627869683       -0.1090390499       -2.3840428584
 C          0.9267934979       -0.3513413345       -0.5096716876
 C          1.9252548444       -0.1797002493        0.5995974993
 O          1.7758522630       -1.1772224798        1.4954834973
 C          1.0617177084       -1.6452616044       -1.3103465366
 C         -1.3589631236       -1.6835212282       -0.1836511090
 C         -1.9871349091       -2.4914763879       -1.0298801536
 C         -2.0873636178       -0.8112949315        0.8012932722
 O          2.7364456908        0.6865166139        0.7505501623
 C         -3.4750370896       -2.6230790647       -1.1067493899
 C         -3.5343185503       -1.2594338599        0.9807681153
 H         -2.0581567640        0.2185893166        0.4293676774
 H         -1.5616305772       -0.8238219907        1.7596385736
 C         -4.1755395256       -1.4753138062       -0.3852239589
 H         -3.7663651943       -3.5788866558       -0.6576103589
 H         -3.7835188467       -2.6573071063       -2.1546916230
 H         -4.0874818278       -0.5089419052        1.5478794807
 H         -3.5606478867       -2.1953455800        1.5429890365
 H         -5.2388101069       -1.6961441635       -0.2779242081
 H         -4.0765518791       -0.5614765952       -0.9742566472
 C          2.2174499519       -2.5807731257       -0.9979313763
 C          0.1161545055       -1.5868718558       -0.1549920901
 H          0.7046044013       -1.6001879235       -2.3283140550
 C          0.9232812547       -2.2012481531        0.9961047380
 C          1.7959884708       -3.2600113145        0.3149932926
 H          1.1921823835       -4.1451481822        0.1142552476
 H          2.6423310434       -3.5372983242        0.9406829195
 H          3.1506886237       -2.0293534570       -0.8688131037
 H          2.3612962595       -3.3045942570       -1.7988794119
 H          0.3302384000       -2.5833180314        1.8282030806
 H         -1.4161315550       -3.1108188555       -1.7089254822
