  48
        -65.77166498
 Si         2.8001548839       -1.0300058437       -0.4173513875
 C          3.1265084017       -2.8426949755       -0.9092544057
 H          4.1846796140       -3.0354372147       -1.0529747478
 H          2.6191071343       -3.0943972576       -1.8364645877
 H          2.7674408047       -3.5311001860       -0.1492785051
 C          3.2162893283        0.1637640453       -1.8355673020
 H          4.2792187550        0.1437949697       -2.0497217918
 H          2.9463220347        1.1854466510       -1.5909187796
 H          2.6939647667       -0.1039034264       -2.7486236614
 C          3.8082075580       -0.6002061869        1.1464330949
 O          1.1907632298       -0.7534610830       -0.2473285325
 H          3.8039086828       -1.4107702566        1.8699220311
 H          3.4164753547        0.2812871644        1.6464517625
 H          4.8457281302       -0.3989399598        0.8983860486
 C          0.2119656013       -1.2665224720        0.5366293680
 C          0.4349940262       -2.0010437843        1.6177686883
 H          1.4368714395       -2.2480564229        1.9151361829
 H         -0.3736700551       -2.3879454987        2.2053232663
 C         -1.1433354884       -0.8778033696        0.0670098001
 C         -2.3628392795       -1.4287259271        0.7436311597
 O         -3.3467616445       -0.5142452782        0.7215832303
 C         -1.3141137909       -0.4520952912       -1.3889248767
 C         -0.6322673525        1.7158438824        0.0010719662
 C          0.1864468834        2.2974266492       -0.8697583540
 C         -0.6250908735        2.2398944082        1.4084696852
 O         -2.4957037041       -2.4960644032        1.2725185704
 C          1.0316065962        3.4304462262       -0.3890163340
 C          0.8274638022        2.3009612851        1.9006897117
 H         -1.2125745331        1.6013993987        2.0695825862
 H         -1.0555078638        3.2457619737        1.4308812533
 C          1.7457719753        3.0485909833        0.9195463210
 H          0.3898519935        4.2969237780       -0.1975650507
 H          1.7663743161        3.7228986642       -1.1395261628
 H          1.1768658919        1.2742351682        2.0200191984
 H          0.8528819561        2.7749062039        2.8830212774
 H          2.1366074008        3.9570266494        1.3808028587
 H          2.5973756297        2.4142255667        0.6702845615
 C         -2.6403939252       -0.7170055736       -2.0783558116
 C         -1.4887725890        0.5610188829       -0.3060336356
 H         -0.4091735521       -0.4784583630       -1.9768242524
 C         -3.0066737654        0.6022051836       -0.0984067992
 C         -3.5777418783        0.3545789282       -1.4977136141
 H         -3.5147941050        1.2756484642       -2.0773318520
 H         -4.6157880041        0.0305223034       -1.4501128910
 H         -3.0113174011       -1.7194862707       -1.8556854114
 H         -2.5435592183       -0.6246994629       -3.1592575680
 H         -3.3865759155        1.5023764881        0.3864274522
 H          0.2636689757        1.9735246820       -1.8949854488
