  48
        -65.77165255
 Si         0.3769136325        3.2244981010        0.3644243174
 C          1.9689104274        4.2086015209        0.6455724214
 H          1.8172774838        5.0032828535        1.3682035155
 H          2.3277936056        4.6592219049       -0.2742008625
 H          2.7485173776        3.5532232758        1.0191762217
 C         -0.9976747876        4.2750472331       -0.4472319492
 H         -0.6703011938        4.6712155482       -1.4040965989
 H         -1.2714192600        5.1187149096        0.1774594343
 H         -1.8998207437        3.6954252785       -0.6251434879
 C         -0.3173112781        2.4665630880        1.9720628695
 O          0.8640088310        2.0642328197       -0.6904550404
 H         -0.5792847758        3.2334845975        2.6938384011
 H          0.4190669716        1.8186654448        2.4379897656
 H         -1.2108141739        1.8747780521        1.7881887272
 C          0.3816852704        0.8764881998       -1.0967598189
 C         -0.5300930122        0.7868795938       -2.0601129272
 H         -0.9205238500        1.6798067136       -2.5122392648
 H         -0.9075076108       -0.1547704659       -2.4090541994
 C          0.9615108069       -0.3120384223       -0.4089264643
 C          1.8457210599       -0.0994803120        0.7869166724
 O          1.6638135499       -1.1082821005        1.6640843753
 C          1.2260052103       -1.5954356864       -1.1952749223
 C         -1.2810163413       -1.7541758478       -0.2848507487
 C         -1.7924207659       -2.5977337785       -1.1738874696
 C         -2.1349249064       -0.9189273416        0.6286452900
 O          2.5965020499        0.8036965373        1.0144869324
 C         -3.2595260152       -2.8094945243       -1.3739056860
 C         -3.5628068892       -1.4510221077        0.6964955465
 H         -2.1363200213        0.1079963913        0.2478212153
 H         -1.6879668350       -0.8927444386        1.6257719503
 C         -4.0803795775       -1.7046581532       -0.7147498088
 H         -3.5339682410       -3.7815656551       -0.9497069231
 H         -3.4774878132       -2.8570380053       -2.4438818721
 H         -4.2020259009       -0.7340988882        1.2144031324
 H         -3.5784257913       -2.3866103497        1.2596716995
 H         -5.1340716298       -1.9874887747       -0.6905858033
 H         -3.9891645725       -0.7865171942       -1.2983358109
 C          2.3901738124       -2.4799463453       -0.7824920557
 C          0.1795696691       -1.5844633104       -0.1291410813
 H          0.9585267008       -1.5599904990       -2.2408747188
 C          0.9080418339       -2.1676361802        1.0889536550
 C          1.8855575123       -3.1824896171        0.4881553899
 H          1.3432275626       -4.0936130790        0.2350641498
 H          2.6849004858       -3.4230489778        1.1866227136
 H          3.2829774388       -1.8881910585       -0.5718161477
 H          2.6358500180       -3.1934324555       -1.5678165554
 H          0.2607052360       -2.5806218105        1.8638952927
 H         -1.1345769746       -3.1885475448       -1.7975508019
