  48
        -65.77084532
 Si         3.0469657756       -0.1906561291       -0.4155642915
 C          3.4878519507        0.7550733693        1.1829345536
 H          3.1886333379        0.2005407207        2.0681611061
 H          2.9910626758        1.7205100683        1.2212144891
 H          4.5548896636        0.9386307385        1.2562819840
 C          4.2261212154       -1.6738841626       -0.6365169055
 H          5.1873039294       -1.3573940848       -1.0292104570
 H          3.8112662426       -2.3992833697       -1.3309860955
 H          4.4158710160       -2.1927822575        0.2987773818
 C          3.1058418676        0.9504514902       -1.9325309270
 O          1.4661593765       -0.6340669050       -0.4242099889
 H          4.0713085673        1.4390256622       -2.0044078542
 H          2.3452335410        1.7222396237       -1.8807054143
 H          2.9506561953        0.3960474486       -2.8525278894
 C          0.6956920722       -1.4368860907        0.3500324271
 C          1.1640888793       -2.2169723175        1.3140707302
 H          2.2164526774       -2.2592967215        1.5230597799
 H          0.5111825622       -2.8468469220        1.8850280850
 C         -0.7449465958       -1.3175565358        0.0065947107
 C         -1.7687286817       -2.1446140586        0.7252019371
 O         -2.9122685905       -1.4486805578        0.8420802859
 C         -1.1196159673       -0.8510528772       -1.3994220452
 C         -0.7670398761        1.3281245207        0.0872515193
 C         -0.3328913793        2.1924265416       -0.8238067685
 C         -0.5966095189        1.6961247562        1.5322768882
 O         -1.6435007217       -3.2454488721        1.1821722394
 C          0.2737447246        3.4702452840       -0.3444259295
 C         -1.0947507358        3.1270144788        1.7887744853
 H          0.4675820938        1.6384616456        1.7781862934
 H         -1.1234849024        0.9948971085        2.1811811888
 C         -0.6494386453        4.1179190309        0.6990049554
 H          0.4433928580        4.1633636304       -1.1687340049
 H          1.2406273846        3.2578825049        0.1223236891
 H         -0.7344430260        3.4507145835        2.7661464594
 H         -2.1849478148        3.1094554867        1.8355625254
 H         -1.5275298111        4.5034814800        0.1781732719
 H         -0.1366103686        4.9696925879        1.1476343780
 C         -2.4209290809       -1.3399082452       -2.0093471489
 C         -1.3976379720        0.0377259214       -0.2328879255
 H         -0.2803472009       -0.6550991509       -2.0497457094
 C         -2.8711400252       -0.2408373189        0.0847605384
 C         -3.4986730010       -0.5166175413       -1.2847017981
 H         -3.6683000792        0.4305595288       -1.7969348870
 H         -4.4445210693       -1.0465280394       -1.1874171843
 H         -2.5655752745       -2.4080335675       -1.8354219647
 H         -2.4369118802       -1.1673958978       -3.0846125685
 H         -3.3785063906        0.5340558700        0.6608278344
 H         -0.4241799386        2.0078554358       -1.8824567865
