  48
        -65.77074792
 Si         2.2584896581       -2.8110737871       -0.5169045570
 C          4.0135677726       -2.5277617960       -1.2210248386
 H          4.6359583998       -3.4055109694       -1.0810668137
 H          4.5187693269       -1.6942574641       -0.7406016952
 H          3.9789799995       -2.3194065323       -2.2865768735
 C          2.3287120903       -2.7951807308        1.3857257416
 H          1.3364429516       -2.9632003583        1.7925259808
 H          2.6817265047       -1.8373291217        1.7601775807
 H          2.9847454256       -3.5648623956        1.7783297902
 C          1.4793977066       -4.3849064079       -1.2277834572
 O          1.2399123459       -1.6373359285       -1.0612611100
 H          0.4759528987       -4.5137029505       -0.8368511784
 H          2.0603240729       -5.2621990587       -0.9645703254
 H          1.4124779000       -4.3432027607       -2.3103649914
 C          0.9315545887       -0.4015299032       -0.6274567436
 C          1.8281067463        0.5690457010       -0.5067073133
 H          2.8623872401        0.3743871326       -0.7226429906
 H          1.5551347738        1.5638859798       -0.2165399014
 C         -0.5324029426       -0.2382847967       -0.3888050067
 C         -1.2352276791       -1.3442635065        0.3449472233
 O         -2.3273341048       -0.8527870494        0.9608896318
 C         -1.3426233358        0.5229801676       -1.4384080419
 C         -0.6981668712        2.3034232021        0.4626605843
 C         -0.5911033806        3.3753246435       -0.3147610657
 C         -0.2571169615        2.2989939606        1.9028993795
 O         -0.9046017616       -2.4881001454        0.4692204351
 C         -0.0053678855        4.6774589944        0.1312236179
 C         -0.0694031268        3.7180016667        2.4315594579
 H          0.6827848580        1.7432293950        1.9814504197
 H         -0.9890713614        1.7638415414        2.5122749458
 C          0.7596243311        4.5302969093        1.4434617592
 H         -0.8169596284        5.4030680691        0.2530027760
 H          0.6527621740        5.0651654856       -0.6506045061
 H          0.4197278387        3.6878740345        3.4065019113
 H         -1.0447820849        4.1930656155        2.5568742433
 H          0.9874287618        5.5151373731        1.8545746528
 H          1.7049335939        4.0153857594        1.2602011458
 C         -2.7461941718        0.0548470474       -1.7758331606
 C         -1.2765086901        1.0360627678       -0.0348804415
 H         -0.7493196289        0.9748332796       -2.2202689473
 C         -2.5752739547        0.4968359065        0.5857911390
 C         -3.5815784040        0.5065772867       -0.5686251222
 H         -3.9477715493        1.5231908655       -0.7127726130
 H         -4.4236083148       -0.1517570471       -0.3627981288
 H         -2.7828196525       -1.0299819904       -1.8918644028
 H         -3.0972028907        0.5061812390       -2.7028517282
 H         -2.9254240033        1.0304564120        1.4706190345
 H         -0.9426123469        3.3373419711       -1.3367808791
