  48
        -65.77074039
 Si         2.2600122347       -2.8462106292       -0.5039840384
 C          4.0255221183       -2.5613580702       -1.1810637705
 H          4.6235925113       -3.4631780671       -1.1016279375
 H          4.5507348414       -1.7776084979       -0.6419207612
 H          4.0014223161       -2.2774091896       -2.2293525492
 C          2.3080590769       -2.9393313493        1.3964372051
 H          2.6971690319       -2.0208521446        1.8288570316
 H          2.9247153106       -3.7582793427        1.7514817237
 H          1.3036786986       -3.0857200546        1.7818297705
 C          1.4553697885       -4.3630463613       -1.3060421016
 O          1.2694481297       -1.6253313873       -0.9952230414
 H          1.3988460816       -4.2617598088       -2.3852883569
 H          0.4461009649       -4.4932085144       -0.9304570572
 H          2.0161757957       -5.2650580802       -1.0863770607
 C          0.9703485886       -0.4153664348       -0.4874852764
 C          1.8821931592        0.5081826052       -0.2148633754
 H          2.9246332989        0.2962212690       -0.3654429541
 H          1.6152240622        1.4844185396        0.1366323570
 C         -0.5033250145       -0.2301847290       -0.3465529739
 C         -1.2557194152       -1.3236078266        0.3553268598
 O         -2.3870612186       -0.8225888146        0.8853599129
 C         -1.2364495983        0.5130114955       -1.4615658152
 C         -0.7152667782        2.3264122578        0.4441289786
 C         -0.4915301310        3.3601146339       -0.3599014203
 C         -0.4342389546        2.3766559934        1.9235749997
 O         -0.9305268672       -2.4640349024        0.5202964418
 C          0.0811774059        4.6656659336        0.0926824660
 C         -0.2587782522        3.8125464584        2.4094775920
 H          0.4720121406        1.7987359653        2.1312667246
 H         -1.2451914530        1.8922838622        2.4721535903
 C          0.6967198369        4.5574248972        1.4847063306
 H         -0.7168981150        5.4161059373        0.0962333880
 H          0.8302085926        5.0016446257       -0.6289436470
 H          0.1213856798        3.8125920725        3.4323343480
 H         -1.2263427590        4.3190294715        2.4081657768
 H          0.9098141900        5.5531903916        1.8769517524
 H          1.6398286757        4.0101665936        1.4262591432
 C         -2.6147135611        0.0423365378       -1.8876869554
 C         -1.2654813192        1.0509570360       -0.0648380075
 H         -0.5896548952        0.9492575325       -2.2090093878
 C         -2.6051774634        0.5219290180        0.4728533040
 C         -3.5295950890        0.5146161325       -0.7480974206
 H         -3.8822887594        1.5293955445       -0.9331762211
 H         -4.3855789093       -0.1389254469       -0.5900852630
 H         -2.6463630501       -1.0440992530       -1.9892286000
 H         -2.8996994319        0.4799577121       -2.8434848612
 H         -3.0163774512        1.0682648762        1.3227920745
 H         -0.7306618389        3.2867675787       -1.4118433762
