  48
        -65.77069457
 Si         2.2882239629       -2.8712757378       -0.2337783453
 C          2.3983518279       -2.8313343559        1.6651273087
 H          1.4023998059       -2.9064508794        2.0908388883
 H          2.8393065374       -1.9028646855        2.0187043916
 H          2.9924666617       -3.6496235236        2.0581007883
 C          1.4097564315       -4.4175803029       -0.8915462164
 H          1.2909448802       -4.3799614415       -1.9699737834
 H          0.4221704893       -4.5036888299       -0.4506243753
 H          1.9658749239       -5.3170247929       -0.6503184564
 C          4.0321131901       -2.6919463123       -0.9956750862
 O          1.3311857878       -1.6500695196       -0.7898255619
 H          4.5831502952       -1.8590426586       -0.5677944778
 H          3.9752763478       -2.5285753977       -2.0679626850
 H          4.6224138959       -3.5875616046       -0.8333150907
 C          1.0079068409       -0.4368018001       -0.3036790430
 C          1.9018804896        0.4848290428        0.0249391610
 H          2.9518725993        0.2748859662       -0.0641804517
 H          1.6138128519        1.4591305632        0.3645294197
 C         -0.4721376165       -0.2631715339       -0.2418867175
 C         -1.2231428406       -1.2705443671        0.5777357253
 O         -2.3875739790       -0.7377901827        0.9890922385
 C         -1.1758368787        0.2873533803       -1.4780239222
 C         -0.7692826024        2.3696503605        0.1592663112
 C         -0.4388222408        3.2440686090       -0.7849791240
 C         -0.6407103888        2.6835773847        1.6278648583
 O         -0.8693431627       -2.3654243302        0.9102765080
 C          0.1144089541        4.6067329843       -0.5127390928
 C         -0.4829139361        4.1823907625        1.8674617313
 H          0.2250058827        2.1483791730        2.0311161259
 H         -1.5143606820        2.3115144648        2.1673191598
 C          0.5805822506        4.7465784889        0.9332019256
 H         -0.6615260709        5.3498262087       -0.7268953138
 H          0.9416578438        4.8038286417       -1.1993168305
 H         -0.2121902221        4.3629889041        2.9090829198
 H         -1.4331150776        4.6844130691        1.6730552926
 H          0.7745837713        5.7954429830        1.1635768346
 H          1.5119442391        4.1939028522        1.0725163783
 C         -2.5224433256       -0.2826304096       -1.8833800490
 C         -1.2771113919        1.0207628927       -0.1748574133
 H         -0.5106132413        0.6295121216       -2.2573560491
 C         -2.6234406261        0.5288147430        0.3818495683
 C         -3.4956414292        0.3190412485       -0.8592627324
 H         -3.8651755670        1.2858527327       -1.2016050736
 H         -4.3411368001       -0.3309697593       -0.6413911886
 H         -2.5215028540       -1.3728718691       -1.8277435959
 H         -2.7785264960        0.0040775067       -2.9024157759
 H         -3.0870019478        1.1730581494        1.1297910888
 H         -0.5687491030        2.9880645874       -1.8271888928
