  48
        -65.77058537
 Si         2.3132104830       -2.8522217689       -0.4195101343
 C          4.1484656408       -2.4369148129       -0.7593379770
 H          4.2647281044       -1.9248599018       -1.7104324442
 H          4.7510725383       -3.3383451140       -0.7988928716
 H          4.5747188119       -1.7981886556        0.0094230464
 C          2.0783567267       -3.3751650701        1.3935632399
 H          1.0190345036       -3.4848702935        1.6061491971
 H          2.4752820877       -2.6311988952        2.0793201308
 H          2.5649876378       -4.3193995716        1.6143149686
 C          1.6759967291       -4.1454176168       -1.6527217023
 O          1.3612064562       -1.5561298050       -0.7799301032
 H          1.7362478648       -3.7867237486       -2.6754522047
 H          0.6388457272       -4.3890548253       -1.4475327045
 H          2.2530297258       -5.0614454251       -1.5883996487
 C          0.9783320017       -0.4706128181       -0.0805768514
 C          1.8051134555        0.2925301523        0.6186663795
 H          2.8513779104        0.0548672983        0.6707108249
 H          1.4659548724        1.1686630530        1.1331846267
 C         -0.4879813027       -0.2411412713       -0.2278379402
 C         -1.3789827082       -1.2849874476        0.3768143196
 O         -2.5763598738       -0.7440784409        0.6604200004
 C         -0.9819009490        0.4325726772       -1.5007397363
 C         -0.7564000301        2.3561862599        0.3481587903
 C         -0.1724554350        3.2440046675       -0.4497593386
 C         -0.9185511768        2.5918659569        1.8283181050
 O         -1.1026358814       -2.4181128800        0.6495846157
 C          0.4082417386        4.5412714581        0.0155535457
 C         -0.6912380316        4.0560349687        2.1939947283
 H         -0.2085914147        1.9582736021        2.3697002702
 H         -1.9156295786        2.2837552777        2.1498409504
 C          0.5819766804        4.5661786718        1.5306389023
 H         -0.2539836456        5.3563235808       -0.2963913901
 H          1.3686621982        4.7038452714       -0.4799857227
 H         -0.6258371353        4.1584296522        3.2785546100
 H         -1.5380448644        4.6529870027        1.8487244252
 H          0.8078534381        5.5799892370        1.8653086240
 H          1.4185994291        3.9239075137        1.8129315517
 C         -2.2671077977       -0.0488999349       -2.1480712113
 C         -1.2593358071        1.0636723276       -0.1678942736
 H         -0.1993367671        0.8083252851       -2.1433853792
 C         -2.6856717168        0.5779797338        0.1392062573
 C         -3.3667756306        0.5043951493       -1.2304219713
 H         -3.6555651164        1.5094737272       -1.5385340266
 H         -4.2520185462       -0.1281225074       -1.1964996692
 H         -2.3033978053       -1.1392167256       -2.1881215806
 H         -2.3595026294        0.3305377446       -3.1647866782
 H         -3.2422390871        1.1724684336        0.8642161179
 H         -0.0966455826        3.0500520588       -1.5102826749
