  48
        -65.77557794
 Si         2.9562077626       -0.7306682673       -0.2365208207
 C          3.2079018901        0.5524626389       -1.6148475807
 H          4.2642920719        0.7067867937       -1.8049794090
 H          2.7768643429        1.5115304391       -1.3470982515
 H          2.7490950814        0.2352003753       -2.5457050353
 C          3.6601178944       -0.0974996999        1.4207750395
 H          3.8473642017       -0.9074535727        2.1199399067
 H          2.9693699033        0.5903229998        1.9002143363
 H          4.6000915537        0.4262973937        1.2779357294
 C          3.7602107824       -2.3972568542       -0.6973195065
 O          1.3184416960       -0.8415312843       -0.2193594634
 H          3.5610597883       -3.1614626015        0.0486622768
 H          4.8374406870       -2.3064131796       -0.7926950090
 H          3.3780975472       -2.7659080561       -1.6452333760
 C          0.4152282329       -1.4508139391        0.5866143062
 C          0.7357669963       -2.2221705832        1.6158232071
 H          1.7642241052       -2.4133309676        1.8582271110
 H         -0.0190651196       -2.6926229580        2.2140477390
 C         -0.9827001689       -1.1386243653        0.1872432177
 C         -2.1379154577       -1.7513345979        0.9226518094
 O         -3.1797669780       -0.9032484115        0.9144671647
 C         -1.2423608225       -0.7693063188       -1.2735330891
 C         -0.6711360254        1.5123510189       -0.0237942424
 C          0.0593032957        1.7424592395        1.0593730634
 C         -0.8255687214        2.5174514835       -1.1340822173
 O         -2.1844286788       -2.8109189733        1.4805890534
 C          0.8236314855        3.0069651347        1.2926681512
 C          0.2341792706        3.6117881346       -1.0530346076
 H         -1.8246574221        2.9626958916       -1.0683340448
 H         -0.7638421780        2.0029649053       -2.0960715884
 C          0.3406167683        4.1280176154        0.3769994935
 H          1.8861093348        2.8120002264        1.1106267387
 H          0.7264449670        3.3035420465        2.3400917842
 H         -0.0199856533        4.4253275498       -1.7352016649
 H          1.1992814120        3.2043740322       -1.3595708355
 H          1.0288171005        4.9737608922        0.4265303201
 H         -0.6412372297        4.4719849333        0.7091484570
 C         -2.5729153914       -1.1390043203       -1.9035672816
 C         -1.4341421704        0.2566083503       -0.2024036862
 H         -0.3604625869       -0.7493601660       -1.8968428503
 C         -2.9468721705        0.2088005459        0.0535351158
 C         -3.5573214685       -0.1163454876       -1.3129835789
 H         -3.5851896325        0.7881524655       -1.9208082300
 H         -4.5672278910       -0.5092646250       -1.2105607416
 H         -2.8674026465       -2.1571040217       -1.6414145169
 H         -2.5228432743       -1.0709689386       -2.9896102778
 H         -3.3633325326        1.0952868001        0.5340820069
 H          0.1403104029        0.9832138135        1.8256127731
