  48
        -65.76993127
 Si         2.2398967263       -2.3556439490       -0.7172138736
 C          3.6898151496       -1.8521540748       -1.8360038724
 H          4.1477329482       -2.7301691093       -2.2774513441
 H          4.4568017843       -1.3241193006       -1.2790718088
 H          3.3693837147       -1.2057536347       -2.6468773096
 C          2.7709306852       -3.4905964173        0.7152241460
 H          3.5724897722       -3.0476114217        1.3000478931
 H          3.1194254226       -4.4544739541        0.3592385881
 H          1.9347978594       -3.6704102473        1.3858659053
 C          0.8228958230       -3.1764597607       -1.6898940448
 O          1.7733089968       -0.8840027830       -0.1310239726
 H         -0.0409559440       -3.3223123614       -1.0461789998
 H          1.1108929574       -4.1495528914       -2.0739580470
 H          0.5096109537       -2.5711740479       -2.5366094504
 C          0.7403791751       -0.5968742468        0.6998092885
 C          0.8880891182       -0.5059377283        2.0138121797
 H          1.8373569260       -0.7012757833        2.4778631954
 H          0.0611544542       -0.2446288327        2.6471530718
 C         -0.5741068551       -0.3845334258        0.0371910727
 C         -1.6956897266       -1.2784491476        0.4723607161
 O         -2.8629557986       -0.6272850397        0.3760533980
 C         -0.6508432539        0.1567451824       -1.3723025145
 C         -0.6814687780        2.2560272681        0.2532331876
 C         -1.4077649627        3.1903023784        0.8656534383
 C          0.7780863584        2.5631388685        0.0683289318
 O         -1.6023367587       -2.4010026364        0.8838880882
 C         -0.7216482995        4.4378872774        1.3180940946
 C          1.3966355960        3.0243426392        1.3962363461
 H          0.8765340089        3.3661214433       -0.6687529581
 H          1.3318120405        1.7003084223       -0.2959252248
 C          0.5375745636        4.0743942290        2.1186561878
 H         -1.3853306126        5.0515115307        1.9271745559
 H         -0.4259268896        5.0283396845        0.4447990458
 H          2.3930146955        3.4199976324        1.1952119366
 H          1.5143584655        2.1453934577        2.0314535204
 H          0.2229956729        3.6844767706        3.0877006764
 H          1.1152929703        4.9811662469        2.3026260966
 C         -1.7722519365       -0.3070987404       -2.2848064962
 C         -1.2090971079        0.9746078956       -0.2362004045
 H          0.2954439099        0.4098319081       -1.8277899768
 C         -2.7037044824        0.6332453748       -0.2755167808
 C         -3.0078129421        0.4428071966       -1.7638224375
 H         -3.0935974071        1.4210327994       -2.2371145683
 H         -3.9339075975       -0.1096552930       -1.9118629833
 H         -1.9189471378       -1.3868448175       -2.2157260082
 H         -1.5585487830       -0.0594358395       -3.3237566671
 H         -3.3670485325        1.3404886719        0.2197106216
 H         -2.4608545227        3.0814184168        1.0681636971
