  48
        -65.76982361
 Si         0.3203941678        3.2912794237        0.4531859891
 C          1.9247066766        3.1212971250       -0.5620949098
 H          2.4655615366        4.0611474831       -0.6038097978
 H          1.7291201287        2.8113391411       -1.5852164562
 H          2.5852821217        2.3876580678       -0.1084412198
 C         -0.8228066105        4.6213172175       -0.2756444422
 H         -1.1015172395        4.3940307929       -1.2995046535
 H         -0.3275177945        5.5857720453       -0.2755088908
 H         -1.7378034939        4.7193528547        0.2990019533
 C          0.7590038838        3.5692210326        2.2817590455
 O         -0.6307643564        1.9475232367        0.3056437563
 H         -0.1309779397        3.6425389153        2.9008441592
 H          1.3399613787        4.4731646223        2.4314449586
 H          1.3477019187        2.7323992288        2.6491768410
 C         -0.4301537986        0.7133945065        0.8251838802
 C         -1.0684336900        0.2878293322        1.9063712375
 H         -1.7488734900        0.9299798872        2.4349276157
 H         -0.9164404983       -0.7063813240        2.2830974549
 C          0.5613426101       -0.1376748817        0.1128821672
 C          1.8326339028       -0.4311703857        0.8493034159
 O          2.2923843838       -1.6407124640        0.5010500702
 C          0.6376116849       -0.1500094525       -1.3970443952
 C         -1.0981741131       -2.0375860400       -0.6998722590
 C         -1.3250719805       -3.3263656271       -0.4497939191
 C         -2.2967411376       -1.2018941793       -1.0524153768
 O          2.3691950052        0.2665877324        1.6641102299
 C         -2.7330284069       -3.8232105633       -0.5056115913
 C         -3.4424200817       -1.4234824950       -0.0520688918
 H         -2.6366341342       -1.4935401487       -2.0511828262
 H         -2.0548921521       -0.1408650520       -1.0750497113
 C         -3.6252636416       -2.8991929264        0.3338223388
 H         -2.8025831988       -4.8463680644       -0.1364801003
 H         -3.0871542970       -3.8132353771       -1.5413565121
 H         -4.3601304159       -1.0288305026       -0.4903978117
 H         -3.2268127259       -0.8367388637        0.8415166850
 H         -3.3608914564       -3.0385148709        1.3831805008
 H         -4.6672823935       -3.1988450374        0.2154018729
 C          1.9816320951       -0.3548873106       -2.0735274437
 C          0.2278894058       -1.4028218607       -0.6651022768
 H         -0.0912100600        0.4620136193       -1.9081628779
 C          1.5412930334       -2.1908564032       -0.5820779503
 C          2.2671397337       -1.8527871369       -1.8866688212
 H          1.8289957669       -2.4339063411       -2.6982103564
 H          3.3300646073       -2.0772486393       -1.8185288075
 H          2.7602245009        0.2478017590       -1.6022870918
 H          1.9335398182       -0.0820770422       -3.1269464869
 H          1.4444920573       -3.2600656870       -0.4004874596
 H         -0.5459419376       -4.0203880282       -0.1791864789
