  48
        -65.76979448
 Si         2.1888904111       -2.4502612798       -0.5620878738
 C          2.2345768770       -3.5233495522        1.0058550679
 H          1.2605671347       -3.5094740369        1.4886599768
 H          2.9624858659       -3.1545591675        1.7233192021
 H          2.4811913116       -4.5571747437        0.7879124764
 C          0.8744124635       -3.1409250072       -1.7580381425
 H          1.1804107592       -4.0979262814       -2.1680099784
 H          0.6901937607       -2.4715789527       -2.5940793326
 H         -0.0672831362       -3.2976498418       -1.2393630417
 C          3.8732362921       -2.2631288788       -1.4194621324
 O          1.8688832541       -0.8797729096       -0.1586802526
 H          3.8190341546       -1.5891068900       -2.2682255863
 H          4.2209694598       -3.2235381949       -1.7830060312
 H          4.6249026229       -1.8747433959       -0.7402745898
 C          0.9043815753       -0.3963770405        0.6592878917
 C          1.1631860825        0.0080922762        1.8951100715
 H          2.1531649225       -0.0693759470        2.3057634664
 H          0.3889114449        0.4166954486        2.5172340286
 C         -0.4710649920       -0.3534728435        0.0926630291
 C         -1.4702404151       -1.2818476640        0.7131264063
 O         -2.6922330036       -0.7340641219        0.6659055494
 C         -0.7143547582        0.0285325331       -1.3496927810
 C         -0.7793661488        2.2810568466        0.0518729342
 C         -1.5212758508        3.2146001309        0.6460256968
 C          0.6130671490        2.6851368178       -0.3446675561
 O         -1.2455073866       -2.3452707445        1.2202336707
 C         -0.9106764544        4.5558705212        0.8920259993
 C          1.3402817731        3.3719002216        0.8217727956
 H          0.5432059006        3.3867353004       -1.1819009384
 H          1.2039184366        1.8304218324       -0.6688430373
 C          0.4519557333        4.3745442009        1.5743885931
 H         -1.5594096976        5.1741901275        1.5123316398
 H         -0.7632214715        5.0730828172       -0.0615060301
 H          2.2265471660        3.8705996986        0.4270582017
 H          1.6792945233        2.5959029298        1.5089722559
 H          0.2754959656        4.0166753675        2.5898371531
 H          0.9476807042        5.3431880502        1.6496274130
 C         -1.8705458195       -0.6046667613       -2.1037577442
 C         -1.2373389760        0.9166206628       -0.2488493182
 H          0.1630607387        0.3029570567       -1.9169565103
 C         -2.6962920020        0.4632635335       -0.1126882611
 C         -3.1129358404        0.1022603876       -1.5406818576
 H         -3.3196467659        1.0189593367       -2.0931246493
 H         -4.0001214903       -0.5283509607       -1.5477466511
 H         -1.9236254373       -1.6796230402       -1.9218097043
 H         -1.7689855123       -0.4478528272       -3.1767961395
 H         -3.3699140167        1.1656302681        0.3756084762
 H         -2.5308891731        3.0407293133        0.9812277093
