  48
        -65.76952118
 Si         2.8705911675        1.6387434226       -0.4705566089
 C          3.4347074746        1.2517112695       -2.2433658798
 H          4.2423420816        1.9125616836       -2.5377450225
 H          2.6292897143        1.3806424555       -2.9598568070
 H          3.7944477052        0.2317273358       -2.3331600373
 C          2.1877107612        3.4183716136       -0.3655721515
 H          1.3739175532        3.5688161693       -1.0695061765
 H          2.9576104303        4.1470855879       -0.5979098602
 H          1.8062479652        3.6542576386        0.6237810390
 C          4.2716146962        1.3822455198        0.7921736570
 O          1.6745531857        0.5218687661       -0.2895152977
 H          4.5328614983        0.3305545287        0.8692658516
 H          3.9895167005        1.7169130413        1.7862194439
 H          5.1676736330        1.9247158125        0.5083033464
 C          0.8951940338        0.1230901890        0.7390909000
 C          0.8053845356        0.7436016055        1.9077397589
 H          1.3919648406        1.6165519223        2.1236557615
 H          0.1605358024        0.3706315118        2.6800922454
 C          0.1067145532       -1.1033536512        0.4441953647
 C          0.0364543256       -2.1497373498        1.5178049978
 O         -1.1394362620       -2.7933566644        1.4518998028
 C         -0.0635108790       -1.5742907763       -0.9843447078
 C         -2.0680599750        0.1068722840       -0.4677338180
 C         -3.3069552907        0.2963661102       -0.0141142294
 C         -1.4671855500        1.2457986339       -1.2424698462
 O          0.8606317810       -2.3862659661        2.3541200070
 C         -3.9832680689        1.5931067348       -0.3180887756
 C         -1.6233781972        2.5494417318       -0.4464805228
 H         -1.9953294098        1.3432908888       -2.1960257638
 H         -0.4133626609        1.0830969693       -1.4551320526
 C         -3.0610611668        2.7652441244        0.0526641844
 H         -4.9270449204        1.6789771403        0.2202074695
 H         -4.2032748031        1.6445911643       -1.3894908830
 H         -1.3109075472        3.3845606582       -1.0749807836
 H         -0.9416548411        2.5029060598        0.4038525297
 H         -3.0575139745        2.8672353921        1.1386179434
 H         -3.4765095168        3.6851758787       -0.3611274466
 C         -0.1635886228       -3.0631614186       -1.2634536661
 C         -1.2713432981       -1.1035723667       -0.2216710001
 H          0.4032091275       -0.9551456675       -1.7359687039
 C         -1.8794830297       -2.4140361966        0.2929176350
 C         -1.5864589539       -3.4286372902       -0.8155732485
 H         -2.2969010430       -3.2825251850       -1.6293874795
 H         -1.6675385127       -4.4499330842       -0.4480990035
 H          0.5789605277       -3.6227311751       -0.6911121998
 H         -0.0060245105       -3.2737495007       -2.3203519944
 H         -2.9303136661       -2.3706636954        0.5754387638
 H         -3.8366069751       -0.4321569766        0.5778616484
