  48
        -65.76949661
 Si         2.8373075587        1.7753021545        0.0012298863
 C          2.1339440588        3.3527988325        0.8146944001
 H          2.8902496787        4.1277199509        0.8863518614
 H          1.7647501614        3.1648887887        1.8189411172
 H          1.3070561410        3.7573885328        0.2375911487
 C          4.3087159307        1.1026154822        1.0051556850
 H          4.1316278548        1.1547255575        2.0754405317
 H          5.2172094486        1.6597333698        0.8003188752
 H          4.4973790932        0.0612873437        0.7595868711
 C          3.3110028455        2.1129884030       -1.8074538696
 O          1.6619098489        0.6408642250       -0.2043352471
 H          3.7123857465        1.2252468847       -2.2856130628
 H          4.0674732199        2.8877949615       -1.8637254274
 H          2.4587157028        2.4444811735       -2.3924651478
 C          0.9661490117       -0.1636695789        0.6280639842
 C          0.9850723711       -0.0844357099        1.9517576774
 H          1.6004145840        0.6337183656        2.4600082388
 H          0.4034663443       -0.7584785391        2.5509670107
 C          0.1398339248       -1.1772344004       -0.0811380558
 C          0.1749878459       -2.5814001900        0.4474344951
 O         -1.0055757753       -3.1811873714        0.2288251377
 C         -0.1824343555       -1.0049929036       -1.5499776544
 C         -2.1097437823        0.2229742724       -0.1781150398
 C         -3.3029642912        0.1581101951        0.4122315125
 C         -1.5743086292        1.6035674988       -0.4348281813
 O          1.0802283743       -3.1173130711        1.0201123396
 C         -3.9984175007        1.4364868237        0.7491939580
 C         -1.6543699135        2.4341498298        0.8539298356
 H         -2.1836914594        2.0822707749       -1.2076123822
 H         -0.5439429808        1.5832554781       -0.7815088532
 C         -3.0433592433        2.3704467319        1.5091367236
 H         -4.8906596230        1.2518239397        1.3472313291
 H         -4.3122296743        1.9320643597       -0.1754166842
 H         -1.3903504224        3.4671880797        0.6237642070
 H         -0.9034548135        2.0476795534        1.5444642427
 H         -2.9466704840        2.0027214955        2.5314383108
 H         -3.4893265739        3.3647436560        1.5598740290
 C         -0.3231361617       -2.2373429090       -2.4251234554
 C         -1.3001361653       -0.9476330550       -0.5447386292
 H          0.2071312797       -0.1081955594       -2.0084086390
 C         -1.8606071007       -2.3748041865       -0.5795684358
 C         -1.6937447562       -2.8118297240       -2.0373607860
 H         -2.4848578191       -2.3615045983       -2.6371458419
 H         -1.7435103329       -3.8948488425       -2.1334846690
 H          0.4712614738       -2.9583242228       -2.2222802306
 H         -0.2797768381       -1.9732862326       -3.4808720083
 H         -2.8753015528       -2.4954906506       -0.2030730964
 H         -3.7821921496       -0.7709991521        0.6744980983
