  48
        -65.76947644
 Si         2.8525749651        0.4134332373        0.7255882857
 C          3.6783739996       -1.2528730726        1.1185928753
 H          4.4354003200       -1.1627959007        1.8906335972
 H          4.1541682685       -1.6843934724        0.2422394723
 H          2.9301268479       -1.9622300178        1.4632076534
 C          3.9453473017        1.4691694021       -0.4335667490
 H          4.8475873141        1.7956864277        0.0731657879
 H          3.4204977316        2.3599240534       -0.7687297840
 H          4.2538273986        0.9205162427       -1.3192742710
 C          2.3824896369        1.4031967110        2.2766942513
 O          1.3699092273        0.1671161170        0.0517099146
 H          3.2652750013        1.7918913804        2.7726511278
 H          1.8493737099        0.7810145639        2.9884802327
 H          1.7409010892        2.2444459807        2.0331776040
 C          0.8802464955       -0.7369301015       -0.8194470131
 C          1.4932398794       -1.1319520596       -1.9258728904
 H          2.4612745279       -0.7485256006       -2.1887988411
 H          1.0480988027       -1.8573263092       -2.5799952975
 C         -0.4463494604       -1.2487994127       -0.3816983922
 C         -0.4352637469       -2.0390759411        0.8945059209
 O         -1.5716627747       -1.8299608467        1.5741749717
 C         -1.5915055617       -1.4632471598       -1.3428890286
 C         -1.6716431471        1.0802468030       -0.5110670634
 C         -1.9092978232        1.9629652622        0.4582257201
 C         -1.2997540309        1.6478649802       -1.8508251333
 O          0.4575941627       -2.7240772643        1.3076207375
 C         -1.7963054906        3.4166834744        0.1359537409
 C         -0.1750950137        2.6818724190       -1.6897701352
 H         -2.1783604841        2.1385652297       -2.2814283887
 H         -0.9731632595        0.8735767380       -2.5430200241
 C         -0.4548515018        3.6882418020       -0.5625901069
 H         -1.8764479056        4.0260976099        1.0360678605
 H         -2.6095807779        3.7052457724       -0.5382369763
 H         -0.0388317832        3.2001366193       -2.6403814458
 H          0.7454315581        2.1411941558       -1.4716575272
 H          0.3368057838        3.6211275223        0.1846516868
 H         -0.4569547492        4.7082317077       -0.9501053005
 C         -2.5933737203       -2.5664140411       -1.0490640099
 C         -1.6957029172       -0.3765963570       -0.3078223931
 H         -1.3916274158       -1.2348809664       -2.3793052657
 C         -2.4936695311       -1.0468356257        0.8171844491
 C         -3.4506547982       -1.9953197294        0.0903736989
 H         -4.2868131913       -1.4204676166       -0.3079410870
 H         -3.8316778244       -2.7633428591        0.7609414333
 H         -2.0886201847       -3.4816099456       -0.7334774744
 H         -3.1927808687       -2.7958583391       -1.9290037666
 H         -2.9952695974       -0.3683012158        1.5062563977
 H         -2.1473543709        1.6735745714        1.4690098253
