  48
        -65.76945436
 Si         0.6177023322        3.0804147445       -0.9462943153
 C          0.1225643227        3.4556301516       -2.7407999400
 H         -0.9445045306        3.6308017424       -2.8293224291
 H          0.3779243612        2.6403052544       -3.4101412640
 H          0.6337367969        4.3437040888       -3.0952482378
 C          0.2184109430        4.5188242542        0.2360379702
 H          0.7978964349        5.4059530440        0.0024500545
 H          0.4408071711        4.2424864708        1.2633506097
 H         -0.8321967148        4.7923502870        0.1893684343
 C          2.4565958629        2.6112201679       -0.7757681125
 O         -0.3442709835        1.7822168648       -0.6100609861
 H          3.1073450183        3.4667159292       -0.9242646360
 H          2.7480589328        1.8510262002       -1.4958236535
 H          2.6546811923        2.2183178017        0.2186461842
 C         -0.3383609839        1.0097681012        0.5035685871
 C         -1.1060714314        1.2695831264        1.5523244395
 H         -1.7418884249        2.1355649234        1.5693479690
 H         -1.0993740648        0.6345631153        2.4181844336
 C          0.5844398364       -0.1556218708        0.4689625354
 C          1.5139650151       -0.3297881919        1.6309459674
 O          1.7423060341       -1.6358785788        1.8412811370
 C          1.0362478400       -0.7291005652       -0.8605505399
 C         -1.2088370255       -1.9929259926       -0.1777977524
 C         -1.8175062403       -1.9846777635       -1.3601529949
 C         -2.0229860583       -2.4232597969        1.0086455175
 O          1.9781543447        0.5343776109        2.3204314780
 C         -3.2472578458       -2.4102439737       -1.4183505683
 C         -3.3449240214       -1.6415192795        1.0207149126
 H         -1.4838128985       -2.2491942137        1.9403965680
 H         -2.2403889877       -3.4932527625        0.9346509511
 C         -4.0624458054       -1.6784995872       -0.3389807259
 H         -3.3069480919       -3.4878101094       -1.2329609811
 H         -3.6773145567       -2.2171813871       -2.4009895449
 H         -3.1171550532       -0.6072725195        1.2816146338
 H         -3.9888303567       -2.0472840312        1.8021846222
 H         -5.0340959331       -2.1654609412       -0.2446866262
 H         -4.2391426066       -0.6575957692       -0.6794848877
 C          2.4253992913       -1.3336027515       -0.9657832112
 C          0.1790087450       -1.5597594635        0.0432097605
 H          0.6182603434       -0.2443407708       -1.7303289627
 C          1.1945459791       -2.4331855677        0.7908012361
 C          2.2962086976       -2.6844085607       -0.2429586888
 H          1.9653458211       -3.4599896626       -0.9338674748
 H          3.2220317534       -3.0007650431        0.2342090500
 H          3.1709119805       -0.7031075183       -0.4771171342
 H          2.7195162120       -1.4613950505       -2.0067342216
 H          0.7896949806       -3.3417492073        1.2380025540
 H         -1.3204157891       -1.6751529655       -2.2655083794
