  48
        -65.76940717
 Si         0.9921047641        3.0191803816       -0.5846275749
 C          0.8042437101        4.4143788162        0.6981106254
 H         -0.2163502089        4.7858128894        0.7326608509
 H          1.4507270194        5.2564162310        0.4734988127
 H          1.0593371700        4.0615775068        1.6938315875
 C          2.7712474999        2.3377980683       -0.5350175090
 H          2.9452957428        1.8084084841        0.3988809319
 H          3.5114909097        3.1278776631       -0.6061402372
 H          2.9596873374        1.6404353141       -1.3471018289
 C          0.4599296824        3.5673970960       -2.3235643624
 O         -0.0876004469        1.8101511496       -0.2812854829
 H         -0.5929970183        3.8281344778       -2.3504671201
 H          0.6241170638        2.7894010935       -3.0625194836
 H          1.0242704313        4.4392541934       -2.6349234802
 C         -0.0803037500        0.9156252994        0.7374933063
 C         -0.6741624985        1.1562435334        1.8979489237
 H         -1.1507804847        2.1004937307        2.0871605934
 H         -0.6775441142        0.4256031325        2.6846263087
 C          0.6182401175       -0.3657400762        0.4565234736
 C          1.5117293488       -0.9194923221        1.5240484471
 O          1.4848290892       -2.2617357709        1.4906496323
 C          0.9330236049       -0.7639559815       -0.9731455420
 C         -1.5067437651       -1.6651215816       -0.4076093009
 C         -2.1205899754       -1.3058866319       -1.5313344279
 C         -2.3722526676       -2.1277520473        0.7289556063
 O          2.1452093541       -0.2993687176        2.3310989986
 C         -3.6112098033       -1.3758715479       -1.5682082188
 C         -3.4912947142       -1.1024549096        0.9710561085
 H         -1.7891743200       -2.2564306357        1.6413975116
 H         -2.8216686898       -3.0921694922        0.4728205466
 C         -4.1865599506       -0.6687131601       -0.3304811051
 H         -3.9276011253       -2.4238366761       -1.5559418964
 H         -4.0063869095       -0.9172145125       -2.4744257706
 H         -3.0474594464       -0.2298945447        1.4518989904
 H         -4.2151489089       -1.5316365168        1.6652600656
 H         -5.2577673204       -0.8673186276       -0.2756169658
 H         -4.0575164993        0.4057623678       -0.4666947961
 C          2.1788165266       -1.5878632596       -1.2469368699
 C         -0.0558026869       -1.5696173282       -0.1904409350
 H          0.6038801195       -0.0619183971       -1.7245112608
 C          0.7802118315       -2.7385613602        0.3434654444
 C          1.8010210276       -2.9993995363       -0.7681910491
 H          1.3195744145       -3.5607666200       -1.5690706176
 H          2.6543065113       -3.5644370162       -0.3972863004
 H          3.0372550226       -1.2067293006       -0.6901176852
 H          2.4305963431       -1.5772206107       -2.3066220844
 H          0.2134623896       -3.6209674856        0.6426418429
 H         -1.5849838060       -0.9460121341       -2.3950443627
