  48
        -65.76939058
 Si         3.1027413019        0.2628291280       -0.2726253226
 C          4.5090900530       -1.0204388841       -0.1589452057
 H          4.6958760408       -1.3377677738        0.8631283119
 H          5.4407314206       -0.6187011497       -0.5450921074
 H          4.2709218801       -1.9092443647       -0.7367940454
 C          3.2018503748        1.2043742708       -1.9209828966
 H          3.2291921315        0.5221454060       -2.7646886450
 H          4.1034054666        1.8060580382       -1.9580891699
 H          2.3564569314        1.8693289057       -2.0650966128
 C          3.1728383450        1.4484372846        1.2220204566
 O          1.6144071607       -0.4218183055       -0.3917886225
 H          4.1943915950        1.6996792643        1.4882994368
 H          2.7030582898        1.0034424131        2.0950065690
 H          2.6556370562        2.3811600776        1.0155285754
 C          0.9013744420       -1.2811215311        0.3759648874
 C          1.3871155056       -1.9163899958        1.4332846736
 H          2.4110450763       -1.7893107746        1.7297290445
 H          0.7831943019       -2.6004761068        1.9957434678
 C         -0.5088178017       -1.4013285129       -0.0751658750
 C         -1.3907650704       -2.4737267365        0.4904019523
 O         -2.6524553270       -2.0214249140        0.5817679077
 C         -0.8883007499       -0.8664378172       -1.4515380529
 C         -1.0380430621        1.1715455373        0.2598820541
 C         -1.1149727925        1.5063666684        1.5451941328
 C         -0.5891640182        2.2333395203       -0.6993487169
 O         -1.0760812007       -3.5711527599        0.8546224214
 C         -0.7448403118        2.8982651669        1.9375735482
 C         -1.3986334053        3.5160735154       -0.4596602010
 H         -0.7106893250        1.9082968467       -1.7326104863
 H          0.4709323661        2.4390591801       -0.5295480192
 C         -1.4477922783        3.9167560009        1.0247654093
 H          0.3375722635        3.0187919884        1.8296817676
 H         -1.0000728295        3.0971537782        2.9784047539
 H         -2.4137631115        3.3478784801       -0.8237532008
 H         -0.9683196307        4.3220016561       -1.0557921979
 H         -0.9856693370        4.8941323231        1.1701739275
 H         -2.4883677636        3.9991888917        1.3422001307
 C         -2.0361218919       -1.5206146335       -2.2002313576
 C         -1.3968328703       -0.1705564272       -0.2319186874
 H         -0.0657642704       -0.4591146632       -2.0206999671
 C         -2.8035978836       -0.7532206142       -0.0525106313
 C         -3.2911642465       -0.9950643185       -1.4839996497
 H         -3.6151827906       -0.0487281816       -1.9176553209
 H         -4.1194824555       -1.7008024712       -1.5062667581
 H         -1.9815414470       -2.6092060067       -2.1386842478
 H         -2.0253498017       -1.2408469414       -3.2529619566
 H         -3.4779993620       -0.1506160919        0.5572462080
 H         -1.4335720960        0.8070368052        2.3029449671
