  48
        -65.76929407
 Si         0.5437217584        2.8587599135        0.4023224904
 C          0.7195455824        2.2869633907        2.2101239657
 H         -0.0931612195        1.6286089680        2.5055512300
 H          0.7167327782        3.1314996932        2.8918751051
 H          1.6503452245        1.7481780699        2.3612627718
 C          2.0983393525        3.8203703468       -0.1261887231
 H          2.3050393625        4.6527668122        0.5383507208
 H          2.0019015917        4.2198511628       -1.1320699962
 H          2.9652947652        3.1652272035       -0.1130112710
 C         -1.0533282190        3.8658271456        0.1674487273
 O          0.2731050895        1.5887864695       -0.6109927458
 H         -0.9803547020        4.8152619245        0.6863681230
 H         -1.9199297762        3.3461425033        0.5638869304
 H         -1.2459028191        4.0748956887       -0.8798810107
 C          1.0874195218        0.6635454772       -1.1683083870
 C          1.7813202481        0.8893262771       -2.2736490019
 H          1.7517239361        1.8478943207       -2.7575447601
 H          2.4007321897        0.1268044292       -2.7063090314
 C          1.1234458848       -0.6356520805       -0.4426134446
 C          1.9319714101       -0.6715978528        0.8182733095
 O          1.3729704398       -1.5177578887        1.6967223078
 C          0.9072874566       -1.9450129673       -1.1753100132
 C         -1.4841883570       -1.0388505574       -0.4239765797
 C         -2.1514808972       -1.2729299022       -1.5500591493
 C         -2.1798303873       -0.2245710590        0.6273984126
 O          2.9048501392       -0.0171059392        1.0698839392
 C         -3.5351061381       -0.7248704078       -1.6719817039
 C         -3.5933636812       -0.7676897018        0.8824996274
 H         -2.2486691815        0.8052291461        0.2666844219
 H         -1.6118768773       -0.2092930067        1.5579553880
 C         -4.3491910271       -1.0842706228       -0.4196003131
 H         -4.0360205699       -1.1077079081       -2.5612246015
 H         -3.4809372521        0.3650167738       -1.7567927034
 H         -4.1461628880       -0.0368007380        1.4742781283
 H         -3.5117961381       -1.6759809087        1.4825664461
 H         -4.5757332862       -2.1511077358       -0.4582198880
 H         -5.2986422937       -0.5481592726       -0.4478937108
 C          1.6166327408       -3.1908505491       -0.6735350629
 C         -0.1058629706       -1.4852917862       -0.1696882165
 H          0.7139849990       -1.8561861248       -2.2340372652
 C          0.2933187193       -2.2405772444        1.1039901504
 C          0.8328017923       -3.5785077914        0.5906414941
 H         -0.0065201346       -4.2265145832        0.3378308864
 H          1.4513468318       -4.0695381421        1.3398236234
 H          2.6610025323       -2.9812549520       -0.4341802917
 H          1.5927405957       -3.9830651413       -1.4204107053
 H         -0.4909175936       -2.3423002248        1.8549247692
 H         -1.7372402197       -1.8499668191       -2.3616011218
