  48
        -65.76919802
 Si         0.7170476613        2.8453088541        0.3924805512
 C          1.0420352295        2.2983036577        2.1862927732
 H          0.2370375769        1.6749256787        2.5671664923
 H          1.1345986374        3.1514395118        2.8507857529
 H          1.9614352385        1.7243105737        2.2587448430
 C          2.2120951123        3.8201574145       -0.2705093988
 H          2.4649971527        4.6567009710        0.3725945816
 H          2.0242163076        4.2170086084       -1.2645372751
 H          3.0858685956        3.1769432838       -0.3314676997
 C         -0.9007261655        3.8388808859        0.2650475796
 O          0.3798111824        1.5567967061       -0.5760775303
 H         -1.7126519515        3.3586236946        0.8020168369
 H         -1.2153030687        3.9650572249       -0.7659323196
 H         -0.7704092756        4.8262872413        0.6942065349
 C          1.1494883287        0.5927302742       -1.1315949749
 C          1.8807168174        0.7885361711       -2.2183456064
 H          1.9218273397        1.7525666232       -2.6902805819
 H          2.4611757787       -0.0062355766       -2.6469876450
 C          1.0882024905       -0.7161427758       -0.4246535024
 C          1.8826330022       -0.8293397230        0.8411734255
 O          1.2561970091       -1.6448218264        1.7030305054
 C          0.7885045300       -1.9968993591       -1.1788348847
 C         -1.5423718493       -0.9403832476       -0.4325701822
 C         -2.2226498528       -1.1291555578       -1.5593383716
 C         -2.1833278869       -0.0823953015        0.6186586423
 O          2.8997152012       -0.2531766375        1.1085236638
 C         -3.5676128415       -0.4918786284       -1.6803462144
 C         -3.6288345585       -0.5336693228        0.8740435157
 H         -2.1868341418        0.9488923465        0.2562995962
 H         -1.6144059262       -0.1016665259        1.5486116260
 C         -4.4026537135       -0.8017990770       -0.4284387011
 H         -4.0922782747       -0.8392424243       -2.5704646539
 H         -3.4434654531        0.5924945761       -1.7619368000
 H         -4.1338381196        0.2317284176        1.4648906767
 H         -3.6063137933       -1.4448813984        1.4748013930
 H         -4.6943622493       -1.8526624141       -0.4684168360
 H         -5.3173054724       -0.2082475265       -0.4562353834
 C          1.4048094909       -3.2960015396       -0.6891899372
 C         -0.1991718730       -1.4817568014       -0.1748691586
 H          0.6116627473       -1.8797813426       -2.2377189491
 C          0.1340177108       -2.2812495921        1.0908243923
 C          0.5832257200       -3.6462070822        0.5619204949
 H         -0.2970035838       -4.2297200998        0.2917528931
 H          1.1583518816       -4.1904778036        1.3089085460
 H          2.4586734119       -3.1627526544       -0.4370510133
 H          1.3338398582       -4.0740186003       -1.4478921625
 H         -0.6627343959       -2.3378622938        1.8332962340
 H         -1.8470838246       -1.7322381052       -2.3708002084
