  48
        -65.77542481
 Si         2.3757396258        1.9378372074       -0.2890563876
 C          2.2080215075        2.5396200690        1.5055890392
 H          1.2407651807        2.9980510290        1.6878710841
 H          2.9697658940        3.2767777170        1.7350293029
 H          2.3230180306        1.7188678989        2.2067584863
 C          3.9795812900        0.9670439927       -0.6033233638
 H          3.9017599906       -0.0254468204       -0.1666911711
 H          4.8469317251        1.4561837530       -0.1723363676
 H          4.1699601050        0.8383376634       -1.6653646639
 C          2.2093137029        3.4087023986       -1.4963113799
 O          1.0751236147        0.9319394735       -0.4053891555
 H          1.2095743538        3.8331533253       -1.4637537562
 H          2.4074156362        3.1198315269       -2.5247775142
 H          2.9075820144        4.2001279942       -1.2442838375
 C          0.7598093637       -0.0737448454       -1.2475029966
 C          0.9411123696       -0.0447817329       -2.5592752319
 H          1.3759990246        0.8123752512       -3.0378312144
 H          0.6717628655       -0.8797612229       -3.1773087258
 C          0.1889926611       -1.2380680008       -0.5169526342
 C          1.1176370993       -1.9047340843        0.4556726063
 O          0.4241270123       -2.3678006502        1.5066624770
 C         -0.9666559441       -2.0460100841       -1.0691699798
 C         -1.9765741105        0.0110397781        0.3157893199
 C         -2.9247536968        0.3482495399       -0.5505360169
 C         -1.6068599250        0.8799665264        1.4883485637
 O          2.3109553316       -1.9845222904        0.3747329515
 C         -3.7207467064        1.6123079829       -0.4723198687
 C         -2.0795882950        2.3131967088        1.2709863116
 H         -0.5233415894        0.8587626871        1.6199821115
 H         -2.0619416208        0.4759748255        2.3991236236
 C         -3.5511065571        2.3116538008        0.8733570821
 H         -4.7757598920        1.3916445900       -0.6556491715
 H         -3.3891466515        2.2754060666       -1.2790233654
 H         -1.4867580058        2.7670791587        0.4746178017
 H         -1.9310847860        2.8961410759        2.1818376664
 H         -4.1270484797        1.7816431473        1.6351159084
 H         -3.9335073291        3.3322160825        0.8127160820
 C         -1.0512755141       -3.5234903259       -0.7265787966
 C         -1.1711384735       -1.2171189667        0.1628917269
 H         -1.3481792436       -1.7202280950       -2.0252702867
 C         -0.9816009326       -2.2243232190        1.3041134809
 C         -1.5247426340       -3.5384882196        0.7358065004
 H         -2.6135570876       -3.5248237598        0.7865623773
 H         -1.1510662558       -4.3951407972        1.2938332879
 H         -0.0773622859       -4.0069116376       -0.8244424032
 H         -1.7525348646       -4.0385464807       -1.3815928657
 H         -1.4253458035       -1.9392305152        2.2582261761
 H         -3.1489948951       -0.2961055585       -1.3897196038
