  48
        -65.76899360
 Si         0.1636370339        3.3910906430        0.2190871017
 C          1.4915440818        3.1858131751       -1.1329375274
 H          1.0862756299        2.7422141991       -2.0385391662
 H          2.2988271066        2.5509717039       -0.7785223725
 H          1.9276774230        4.1415204442       -1.4049782403
 C         -1.2296627440        4.5490370724       -0.3517106402
 H         -0.8345811592        5.5341907987       -0.5729391595
 H         -1.9919684853        4.6623179485        0.4119045594
 H         -1.7165141236        4.1802517190       -1.2487459228
 C          0.9944592772        3.9302991143        1.8415121522
 O         -0.6769312959        1.9885272618        0.4589672472
 H          0.2719374107        4.0356354160        2.6462120359
 H          1.5151468758        4.8767116598        1.7401134962
 H          1.7221426036        3.1830039305        2.1476643391
 C         -0.2588554519        0.8367383356        1.0338334172
 C         -0.5829259602        0.5065535410        2.2758018317
 H         -1.1689996344        1.1666123890        2.8880303226
 H         -0.2695660845       -0.4290293088        2.6998206908
 C          0.5961647935       -0.0367428558        0.1842891012
 C          2.0327692894       -0.1531107082        0.5938521584
 O          2.5048122461       -1.3620687564        0.2615694937
 C          0.2999776598       -0.2256742736       -1.2861177184
 C         -1.0274360865       -2.1299309606       -0.0006830378
 C         -1.0930035300       -3.4355738590        0.2582172716
 C         -2.3327304019       -1.3864941901        0.0382266372
 O          2.6859666436        0.6722497153        1.1688842999
 C         -2.4295224876       -4.0312567160        0.5595710033
 C         -3.3587362059       -2.1131893025       -0.8429007673
 H         -2.2278406870       -0.3544030981       -0.2896614641
 H         -2.6982039291       -1.3668994134        1.0685022210
 C         -3.4530848324       -3.6106220748       -0.5078781742
 H         -2.7727382078       -3.6699345833        1.5342996980
 H         -2.3721072463       -5.1185779313        0.6088224937
 H         -3.0605300433       -1.9891949075       -1.8853926253
 H         -4.3306097459       -1.6336784746       -0.7211857412
 H         -4.4534672592       -3.8603865178       -0.1522875427
 H         -3.2709742264       -4.1981387417       -1.4088885402
 C          1.4472957284       -0.4252028695       -2.2606698572
 C          0.2024861343       -1.4056772625       -0.3504537302
 H         -0.5880510580        0.2688870563       -1.6522927439
 C          1.5637948598       -2.0898901522       -0.5287067194
 C          1.9062307734       -1.8688427026       -2.0040712172
 H          1.3329512707       -2.5700005528       -2.6107120733
 H          2.9680925198       -2.0167989964       -2.1920941981
 H          2.2600254792        0.2773613784       -2.0673487177
 H          1.1151906294       -0.2842054875       -3.2884427724
 H          1.6180791826       -3.1312569454       -0.2155900422
 H         -0.2329160267       -4.0850661908        0.2482948106
