  48
        -65.76888485
 Si        -0.6084956764        2.7203601086        0.2840367386
 C          0.7140874216        4.0644395964        0.5252583815
 H          1.6989675282        3.6186686480        0.6334336967
 H          0.5214447126        4.6649726210        1.4084768264
 H          0.7523528692        4.7359236411       -0.3280302480
 C         -2.2975098156        3.4431315727       -0.2053612737
 H         -3.0459864172        2.6665056001       -0.3268717558
 H         -2.2381278105        3.9901228285       -1.1403177652
 H         -2.6540111838        4.1288839253        0.5552013314
 C         -0.8039786808        1.6762926436        1.8699529727
 O         -0.2897530717        1.8251819921       -1.0557530093
 H          0.1563481126        1.4199092216        2.3068006599
 H         -1.3392961519        0.7510297592        1.6720904212
 H         -1.3620758612        2.2219587884        2.6244888779
 C          0.6295514821        0.9518891578       -1.5094211661
 C          1.0284347038        0.9875818936       -2.7757372115
 H          0.6484704203        1.7341734458       -3.4483803921
 H          1.7492693217        0.2901679107       -3.1569235788
 C          1.1671725159       -0.0423337553       -0.5394043944
 C          2.0820215266        0.5193302597        0.5078558857
 O          2.0125518796       -0.2195162798        1.6241657878
 C          1.4212608626       -1.4779668336       -0.9470008632
 C         -1.0241657585       -1.4770290615        0.0623109382
 C         -1.8582800086       -0.9518880836       -0.8330290712
 C         -1.6025481101       -2.5211014334        0.9795328237
 O          2.7577386041        1.5055717609        0.4230911185
 C         -3.2893537267       -1.3791492542       -0.8130724479
 C         -2.3552548974       -3.5584246633        0.1344922899
 H         -2.3027595041       -2.0524005325        1.6771808522
 H         -0.8314060511       -3.0256336132        1.5605939671
 C         -3.4089738197       -2.9124605225       -0.7776576549
 H         -3.8256306693       -0.9857258157       -1.6761459244
 H         -3.7642709038       -0.9717484884        0.0856672858
 H         -2.8225317972       -4.2882957231        0.7969763070
 H         -1.6203505351       -4.0897707878       -0.4729309300
 H         -3.2913370123       -3.2951296832       -1.7921985494
 H         -4.4136273501       -3.1767042934       -0.4446943631
 C          2.6164932897       -2.2165015127       -0.3710849866
 C          0.4167272575       -1.1758371488        0.1388109604
 H          1.0713658055       -1.7540645802       -1.9311754945
 C          1.2334169238       -1.3961752259        1.4194739877
 C          2.1931285049       -2.5385601468        1.0714447253
 H          1.6583469967       -3.4878535228        1.1115427360
 H          3.0333940793       -2.5733773597        1.7625708633
 H          3.5102123279       -1.5894424733       -0.3807852016
 H          2.8299377869       -3.1203662025       -0.9397459823
 H          0.6535558953       -1.5567437067        2.3287838454
 H         -1.5479719700       -0.2213301275       -1.5593836755
