  48
        -65.76876080
 Si         0.5350172185        3.4234925630       -0.4160741616
 C          0.8364711715        4.1778504836        1.3027941962
 H          1.4967982326        5.0378677452        1.2639348118
 H          1.2944722826        3.4371539549        1.9535134000
 H         -0.0923464058        4.4953579299        1.7687727320
 C          2.1991214061        2.8502362107       -1.1496611504
 H          2.7434098192        2.2436216400       -0.4312925716
 H          2.8302848752        3.6963287612       -1.4014944491
 H          2.0648621970        2.2624084717       -2.0537046050
 C         -0.3808328694        4.5791703377       -1.6132315659
 O         -0.5413061759        2.1761517246       -0.3013372797
 H         -0.6012927520        4.0869602503       -2.5548417455
 H          0.2216976372        5.4538121311       -1.8312249124
 H         -1.3214350128        4.9214066821       -1.1947199302
 C         -0.5542975492        1.1357625710        0.5624515394
 C         -1.3977616074        1.0813188388        1.5832038546
 H         -2.0830295221        1.8860988280        1.7751648555
 H         -1.4131586256        0.2390182280        2.2482941667
 C          0.4363326346        0.0570196616        0.2949710695
 C          1.5694768975       -0.0807940018        1.2639905277
 O          1.9470402313       -1.3663591485        1.3428266842
 C          0.6954939440       -0.4002780086       -1.1278593092
 C         -1.2725057099       -1.9216934680       -0.1769990832
 C         -2.0479402321       -1.9402327667       -1.2573907452
 C         -1.8332741159       -2.5403370747        1.0711521199
 O          2.0665322303        0.7892346359        1.9229709338
 C         -3.3998129771       -2.5629237706       -1.1422074342
 C         -2.3750654838       -3.9418704175        0.7547060642
 H         -2.6570161778       -1.9177514936        1.4317598105
 H         -1.0839871831       -2.5968216288        1.8614083979
 C         -3.2893104908       -3.9479655056       -0.4827004124
 H         -3.8770912762       -2.6560336015       -2.1175364991
 H         -4.0337555391       -1.9257029026       -0.5176490676
 H         -2.9123314581       -4.3180491206        1.6261284538
 H         -1.5261480667       -4.6062175506        0.5831666027
 H         -2.8939655394       -4.6466803330       -1.2214323703
 H         -4.2898228207       -4.2891920241       -0.2143464269
 C          2.0869323048       -0.8699645959       -1.5158073909
 C          0.0840691052       -1.3528577920       -0.1445935288
 H          0.0902988319        0.0860669637       -1.8788080310
 C          1.2890135250       -2.1612975568        0.3553371469
 C          2.2019130736       -2.2599417690       -0.8698027269
 H          1.8156393677       -3.0287147822       -1.5392633795
 H          3.2216628391       -2.5127013949       -0.5847185933
 H          2.8565715624       -0.1998304651       -1.1290040629
 H          2.1950682797       -0.9195463301       -2.5984759240
 H          1.0531226295       -3.1251267053        0.8076276739
 H         -1.7303246995       -1.5376116942       -2.2058032429
