  48
        -65.76870693
 Si         1.8822101062       -2.8933496986       -0.0273794967
 C          0.2800150216       -3.6728230525       -0.7057245310
 H         -0.0077552183       -3.2440235370       -1.6620457560
 H         -0.5400781139       -3.5270386745       -0.0087606549
 H          0.3948581646       -4.7423021620       -0.8494745811
 C          3.3522905651       -3.2716115685       -1.1705136121
 H          3.5093649701       -4.3420448752       -1.2422952689
 H          4.2698297932       -2.8272789315       -0.7994745579
 H          3.1884748355       -2.8945762824       -2.1748192774
 C          2.1563835400       -3.4497758397        1.7691887448
 O          1.8494407156       -1.2442253082       -0.1114523797
 H          3.0361886904       -2.9810318278        2.2017055817
 H          2.2816662513       -4.5245231510        1.8497895063
 H          1.3002486786       -3.1688313479        2.3768037315
 C          1.1424187955       -0.3398584773        0.6010410445
 C          1.7166487212        0.4626600735        1.4863043760
 H          2.7682270314        0.3909854030        1.6948034836
 H          1.1467641013        1.2029394022        2.0159065411
 C         -0.3188710237       -0.2856001725        0.3180736390
 C         -1.2311148937       -0.9298104783        1.3149812282
 O         -2.4028641747       -0.2790971263        1.3467960661
 C         -0.8120316320       -0.2038786483       -1.1104876700
 C         -0.4520493385        2.2977871879       -0.2326357168
 C         -0.8640525781        3.3220729461        0.5138155498
 C          0.7021397552        2.5739403293       -1.1524638648
 O         -0.9789043302       -1.8596460303        2.0295872013
 C         -0.1713407936        4.6361504177        0.3596893893
 C          0.4073030645        3.8273531675       -1.9897267608
 H          0.9081580351        1.7343528563       -1.8131864741
 H          1.5984567949        2.7479066809       -0.5508584741
 C         -0.0687669309        5.0081418108       -1.1277403628
 H          0.8399293739        4.5596085123        0.7720893509
 H         -0.6948500707        5.4227608982        0.9030120009
 H         -0.3627479719        3.5750120709       -2.7206442975
 H          1.3068940841        4.0987517043       -2.5434056552
 H          0.6095883173        5.8556520244       -1.2328773016
 H         -1.0531028795        5.3339798545       -1.4672131970
 C         -2.1311320900       -0.8573292066       -1.4833760444
 C         -1.0493657567        0.9540578610       -0.1788030213
 H         -0.0388858995       -0.1762735071       -1.8644917723
 C         -2.4807764562        0.7041918109        0.3140762760
 C         -3.1917911201        0.0816700864       -0.8898575279
 H         -3.4497329888        0.8700220523       -1.5971397976
 H         -4.0988547487       -0.4389710820       -0.5883352448
 H         -2.2153379297       -1.8563239068       -1.0521323601
 H         -2.2304039611       -0.9460725225       -2.5645672954
 H         -2.9973795161        1.5714913734        0.7232089038
 H         -1.6753079752        3.2459509366        1.2200440288
