  48
        -65.76866851
 Si         1.8605885704       -2.9332458517       -0.0175508835
 C          0.2292457268       -3.7169108784       -0.6169508366
 H         -0.5685175279       -3.5304692327        0.0960441379
 H          0.3256434768       -4.7930341615       -0.7188670086
 H         -0.0799900604       -3.3239335527       -1.5819727686
 C          3.2894488011       -3.3697347931       -1.1919684147
 H          4.2259018616       -2.9357486408       -0.8577800875
 H          3.1044766455       -3.0128827951       -2.1999554787
 H          3.4232183884       -4.4445572020       -1.2423569359
 C          2.1867498789       -3.4276534887        1.7884445923
 O          1.8435106050       -1.2883002848       -0.1609116117
 H          1.3512909150       -3.1196384513        2.4114050495
 H          3.0818432397       -2.9491099190        2.1765986366
 H          2.3089070010       -4.4995619412        1.9037868747
 C          1.1764583772       -0.3461918702        0.5411086388
 C          1.7968884305        0.4852361949        1.3664089174
 H          2.8555391173        0.4076436170        1.5328679866
 H          1.2597625165        1.2557042679        1.8866813837
 C         -0.2940313207       -0.2827658555        0.3122957538
 C         -1.1797258045       -0.8859194899        1.3570867939
 O         -2.3422657149       -0.2190304417        1.4083299012
 C         -0.8322308426       -0.2320730802       -1.1029827369
 C         -0.4193882785        2.2892480758       -0.2963341447
 C         -0.6481112709        3.2559885049        0.5914132693
 C          0.5222540945        2.6185708626       -1.4171441095
 O         -0.9155872773       -1.7973047015        2.0909240128
 C          0.0233375986        4.5746874569        0.3931675205
 C          0.1084588336        3.9427722130       -2.0777608231
 H          0.5448531164        1.8324336256       -2.1697514342
 H          1.5319946104        2.7204499249       -1.0097293982
 C         -0.1782599788        5.0524525496       -1.0527900687
 H          1.0962798637        4.4623587023        0.5793362580
 H         -0.3607850576        5.3217033271        1.0877070560
 H         -0.7865270726        3.7596580347       -2.6746072067
 H          0.8989193110        4.2526793545       -2.7623936474
 H          0.4655128574        5.9140381474       -1.2334499904
 H         -1.2108318213        5.3885800586       -1.1591330585
 C         -2.1711501465       -0.8775982359       -1.4149226607
 C         -1.0246429951        0.9507225623       -0.1972510187
 H         -0.0790186726       -0.2371951364       -1.8775879032
 C         -2.4414305688        0.7357890503        0.3513368063
 C         -3.2001443130        0.0902753651       -0.8108317742
 H         -3.4728705468        0.8626351612       -1.5301861679
 H         -4.1025478027       -0.4107765004       -0.4653341847
 H         -2.2530357982       -1.8642283836       -0.9557613468
 H         -2.3081063086       -0.9923240936       -2.4895576043
 H         -2.9271136554        1.6257988447        0.7511633148
 H         -1.2983340190        3.1234418519        1.4420114893
