  48
        -65.77536803
 Si         0.1744832758        3.3001889145       -0.7931508354
 C          1.9278483810        2.8768133461       -1.4098830280
 H          1.9092323204        2.1746681693       -2.2392460000
 H          2.5181604878        2.4395339423       -0.6098119297
 H          2.4501846619        3.7662183610       -1.7472099587
 C         -0.8254497532        4.1848793299       -2.1449941134
 H         -0.3428655394        5.1146662707       -2.4246145535
 H         -1.8289840150        4.4217862341       -1.8076501622
 H         -0.9154103419        3.5780913320       -3.0401983203
 C          0.2875478359        4.2746647191        0.8346158162
 O         -0.7434268231        1.9439640521       -0.5755295773
 H         -0.6973395799        4.4967533973        1.2364701903
 H          0.8141495147        5.2153982171        0.7126869306
 H          0.8226019824        3.6887463623        1.5773969906
 C         -0.6672963364        0.9830047613        0.3730069946
 C         -1.5748030011        0.8677931063        1.3326142576
 H         -2.3873865985        1.5663932875        1.4103716667
 H         -1.5231331079        0.0719457287        2.0515526895
 C          0.4872924941        0.0488579727        0.2632878958
 C          1.6077876758        0.2355874495        1.2381233873
 O          2.1781048320       -0.9476487342        1.5084791714
 C          0.8349626330       -0.5814665959       -1.0688325735
 C         -0.9245340181       -2.1867679329        0.1341201381
 C         -1.1916330797       -3.0322073717        1.1257026945
 C         -1.9144858960       -1.9063617283       -0.9646027540
 O          1.9491923873        1.2613061370        1.7580289354
 C         -2.4599368964       -3.8165142776        1.2453889449
 C         -3.3151883385       -2.3860593391       -0.5979967617
 H         -1.5769527554       -2.4058076682       -1.8789180903
 H         -1.9402907850       -0.8328945445       -1.1626194747
 C         -3.2520713838       -3.8086550993       -0.0573344408
 H         -3.0642428084       -3.3827440995        2.0495557296
 H         -2.2247359379       -4.8419927304        1.5425348613
 H         -3.9625387926       -2.3371008357       -1.4751929948
 H         -3.7312374305       -1.7280607475        0.1671326174
 H         -4.2563764404       -4.1999029928        0.1131621867
 H         -2.7584946220       -4.4511675321       -0.7894426762
 C          2.2873616336       -0.8880002858       -1.3897499656
 C          0.3552904487       -1.4532101370        0.0594701050
 H          0.1859205878       -0.3171579466       -1.8906734213
 C          1.6640561322       -1.9780437283        0.6636614050
 C          2.6019159827       -2.1262598726       -0.5371000702
 H          2.3494506264       -3.0403712596       -1.0746971682
 H          3.6429948315       -2.1724555348       -0.2227644234
 H          2.9392457203       -0.0562950001       -1.1170889795
 H          2.4186215377       -1.0861310181       -2.4528004030
 H          1.5792922057       -2.8845119048        1.2621180443
 H         -0.4799267777       -3.1816583431        1.9259564149
