  48
        -65.76847478
 Si         2.3831232065        2.3579360457       -0.2930873057
 C          2.5340965272        2.5745705466       -2.1750949934
 H          3.0735206297        3.4852407386       -2.4105115580
 H          1.5617550997        2.6380672623       -2.6541175344
 H          3.0708701196        1.7474989302       -2.6286132477
 C          1.3399216228        3.7688540048        0.4596895056
 H          1.8428758009        4.7254778541        0.3616291750
 H          1.1453060169        3.6105477144        1.5166386069
 H          0.3774444895        3.8550274986       -0.0373604452
 C          4.0910913672        2.2652609503        0.5430004039
 O          1.5836990432        0.9209320430       -0.2225565787
 H          4.0166288083        2.2773627383        1.6265283520
 H          4.7217074645        3.0990432019        0.2514024274
 H          4.6062840031        1.3497875621        0.2659524650
 C          1.1491598339        0.1219017650        0.7762269085
 C          1.2663484101        0.3930567382        2.0690469298
 H          1.7561588768        1.2852560100        2.4100166268
 H          0.8989853873       -0.2898306785        2.8105010174
 C          0.4984141877       -1.1260724187        0.2951636057
 C          0.8035658223       -2.3929938573        1.0400735712
 O         -0.2553163349       -3.2159387199        0.9940358191
 C          0.1067534071       -1.2693736864       -1.1600340363
 C         -1.9724992833       -0.1756009490        0.0964610781
 C         -3.1674632082       -0.3631295077        0.6566091390
 C         -1.6650639069        1.2294726343       -0.3386075176
 O          1.8087152502       -2.6616632484        1.6333451925
 C         -4.0818583403        0.8109883755        0.7888349277
 C         -2.8130160146        1.7690257919       -1.2038077989
 H         -0.7325341406        1.2925001480       -0.8935599324
 H         -1.5628583525        1.8565265428        0.5519378404
 C         -4.1885855193        1.5537324150       -0.5521335237
 H         -3.6784413011        1.4984966068        1.5393734395
 H         -5.0729335813        0.5006409579        1.1198006503
 H         -2.7814744149        1.2581575495       -2.1676225908
 H         -2.6425541772        2.8300989101       -1.3913691043
 H         -4.6877657909        2.5094622653       -0.3873438954
 H         -4.8207969638        0.9661723766       -1.2194848331
 C          0.1636044421       -2.6397978818       -1.8105916892
 C         -0.9735643057       -1.2327996765       -0.1127495466
 H          0.3142777564       -0.4118860734       -1.7827352842
 C         -1.2676043168       -2.7199199921        0.1201349770
 C         -1.0708318153       -3.3647713003       -1.2543420621
 H         -1.9470760432       -3.1641722736       -1.8710525931
 H         -0.9302265494       -4.4407655315       -1.1701902968
 H          1.0793146688       -3.1683399465       -1.5381934475
 H          0.1295301204       -2.5582569862       -2.8961769108
 H         -2.2296768533       -2.9487711039        0.5757802931
 H         -3.5116904257       -1.3210939098        1.0105162613
