  48
        -65.76839697
 Si         2.0975270823        2.6649883103       -0.3552272815
 C          2.2126795709        2.8599537205       -2.2421207975
 H          2.7841159580        2.0538108516       -2.6910256082
 H          2.7027177329        3.7926728398       -2.4983213719
 H          1.2319872785        2.8674447919       -2.7078986406
 C          0.9811004248        4.0247668461        0.3863801906
 H          1.3438830555        5.0141668269        0.1269577853
 H          0.9351088138        3.9714138406        1.4703511808
 H         -0.0368110504        3.9427843311        0.0145048050
 C          3.8155312023        2.6790878306        0.4637562491
 O          1.3891053831        1.1826128253       -0.2520841546
 H          4.4252405818        1.8596463314        0.0936080260
 H          3.7501606627        2.5678498654        1.5421882075
 H          4.3477861470        3.6029479607        0.2615410318
 C          1.0554409522        0.3590158336        0.7652508041
 C          1.0900792113        0.6865421024        2.0496753923
 H          1.4229409583        1.6552725663        2.3704363187
 H          0.8076997078       -0.0207931143        2.8054724371
 C          0.6229496327       -0.9911141749        0.3148010082
 C          1.1551994341       -2.1688767167        1.0780308486
 O          0.2594072773       -3.1675640991        1.0588779594
 C          0.2502168838       -1.2288036678       -1.1326031948
 C         -1.9801480365       -0.4973426150        0.1223679507
 C         -3.1410554573       -0.8967175886        0.6415502917
 C         -1.9070828098        0.9458078412       -0.2907169106
 O          2.1969214359       -2.2416989038        1.6645448819
 C         -4.2480255875        0.1000172397        0.7564755921
 C         -3.1055323593        1.2907787036       -1.1867751971
 H         -0.9835583532        1.1763351891       -0.8159929901
 H         -1.9410621752        1.5690045471        0.6078035361
 C         -4.4418234665        0.8322040089       -0.5805333229
 H         -3.9919109628        0.8358979450        1.5255588067
 H         -5.1797724955       -0.3815862453        1.0531560434
 H         -2.9578145916        0.8061960219       -2.1533432938
 H         -3.1159088211        2.3677655850       -1.3599265393
 H         -5.1034834133        1.6849653712       -0.4231886352
 H         -4.9429207444        0.1537440522       -1.2725669286
 C          0.5419347058       -2.5794486341       -1.7609861812
 C         -0.8096789115       -1.3640886869       -0.0716507877
 H          0.2942175324       -0.3594413415       -1.7718282638
 C         -0.8332322917       -2.8752497459        0.1897591860
 C         -0.5389450249       -3.5007998679       -1.1762193672
 H         -1.4429976623       -3.4698436779       -1.7845686624
 H         -0.2091120572       -4.5331777917       -1.0760964612
 H          1.5395011989       -2.9325543967       -1.4921150716
 H          0.4827550681       -2.5256304497       -2.8472133285
 H         -1.7343134273       -3.2622127916        0.6628712004
 H         -3.3261051708       -1.9057579276        0.9717087665
