  48
        -65.76820353
 Si         1.2541083902        2.8283519858        0.7004343139
 C          0.6827688221        4.3430266644       -0.3149251966
 H         -0.3858814420        4.3058522511       -0.5084394679
 H          1.1853781324        4.4068610314       -1.2761042496
 H          0.8852090424        5.2673869337        0.2161860360
 C          0.4513259744        2.8442689538        2.4215408140
 H          0.6816296149        3.7641689153        2.9477746372
 H          0.8088535081        2.0176734582        3.0271274239
 H         -0.6292044723        2.7602757005        2.3585153306
 C          3.1512632409        2.7151180827        0.7556667030
 O          0.6205626397        1.4403268489        0.0775738355
 H          3.5785987734        3.3603899801        1.5161929612
 H          3.5998946668        2.9891736891       -0.1952139667
 H          3.4544418573        1.6939515670        0.9730434562
 C          0.9970711879        0.6248851248       -0.9266485180
 C          1.4592511942        1.0274918572       -2.1014689822
 H          1.5753506581        2.0717759318       -2.3223643848
 H          1.7431422955        0.3203225012       -2.8575604228
 C          0.8611263295       -0.8095966415       -0.5519702436
 C          1.8479676619       -1.2860764618        0.4746617772
 O          1.2908049107       -2.2329577587        1.2412627385
 C          0.2527844889       -1.8364117710       -1.4762761265
 C         -1.7324949554       -0.7697725076       -0.0553968832
 C         -2.5859862844       -0.9264572535        0.9555997055
 C         -2.1325051479        0.2284925477       -1.1045948976
 O          2.9582149413       -0.8699199780        0.6508606396
 C         -3.8405402605       -0.1151572671        0.9560285302
 C         -3.5628621662       -0.0640701256       -1.5784005897
 H         -1.4539215093        0.2211416617       -1.9559078286
 H         -2.0963359302        1.2291018452       -0.6654358575
 C         -4.5449327664       -0.2191325627       -0.4058386917
 H         -3.5865789446        0.9339067436        1.1395253914
 H         -4.5166261842       -0.4380859250        1.7477866982
 H         -3.5453086459       -0.9844415100       -2.1648793517
 H         -3.8853171936        0.7395903488       -2.2416924998
 H         -5.3250842945        0.5414763063       -0.4577487725
 H         -5.0340449132       -1.1925294490       -0.4662446094
 C          0.7598888172       -3.2667583914       -1.4215290998
 C         -0.4563609905       -1.4851456970       -0.1919765367
 H         -0.1062446358       -1.4687358272       -2.4264743434
 C         -0.0032953707       -2.5971345336        0.7617985635
 C          0.1424564997       -3.8306878608       -0.1328684554
 H         -0.8460372630       -4.2460749127       -0.3292950307
 H          0.7632689402       -4.5906234796        0.3380912922
 H          1.8502963720       -3.2955908000       -1.3735565502
 H          0.4439624130       -3.8281926813       -2.2997292053
 H         -0.6352491644       -2.7622285927        1.6329003227
 H         -2.4194102503       -1.6117581181        1.7705578494
