  48
        -65.76778066
 Si         0.2135065463        2.9299398877        0.2659337075
 C          1.8002279769        3.8454402300       -0.2372202765
 H          2.6577226616        3.1868197626       -0.1332502420
 H          1.9762240844        4.7200743594        0.3803001078
 H          1.7586026865        4.1736329383       -1.2722409097
 C         -1.3547117038        3.9782650309        0.0154522730
 H         -2.2547045120        3.4245905088        0.2639665793
 H         -1.4507509872        4.3112949025       -1.0126944921
 H         -1.3274845256        4.8598053436        0.6464356176
 C          0.3159514455        2.3636471487        2.0857538784
 O         -0.1015204384        1.6873460094       -0.7671546744
 H          0.1461900975        3.1987253000        2.7585907352
 H          1.2933261653        1.9544450763        2.3214010220
 H         -0.4235172047        1.6022478631        2.3225203875
 C          0.5969606322        0.6913449718       -1.3508899654
 C          0.8689912134        0.7069177166       -2.6487726578
 H          0.5669067064        1.5366791482       -3.2607031707
 H          1.4068731809       -0.0926540844       -3.1211465023
 C          1.0149073416       -0.4157102021       -0.4475028783
 C          2.0250539135       -0.0617735814        0.6024002370
 O          1.8261336443       -0.8049129292        1.7006013526
 C          1.0129793916       -1.8624516368       -0.9089429637
 C         -1.3815781199       -1.4689829614        0.1444769110
 C         -2.1766793079       -0.4327260265        0.3884674298
 C         -2.0430773321       -2.7711195617       -0.2118707546
 O          2.8759177270        0.7804375579        0.5307214599
 C         -3.6510818482       -0.6380519025        0.2699960925
 C         -3.0666399309       -2.5412389792       -1.3343464589
 H         -2.5639454739       -3.1618537958        0.6675951681
 H         -1.3087954981       -3.5134447003       -0.5263032228
 C         -3.9719021106       -1.3269557567       -1.0659893629
 H         -4.1868633985        0.3085242019        0.3351831504
 H         -3.9956091703       -1.2775978097        1.0892301121
 H         -3.6662971458       -3.4449247078       -1.4532115856
 H         -2.5204328531       -2.3863354922       -2.2659634232
 H         -3.8392937055       -0.5934737369       -1.8622181606
 H         -5.0207758831       -1.6266958704       -1.0668100224
 C          2.0750627498       -2.8089407136       -0.3748424726
 C          0.0934876377       -1.4297436712        0.1947517599
 H          0.6227926894       -2.0378836275       -1.9009482099
 C          0.8638423751       -1.8299660106        1.4632375540
 C          1.6180899332       -3.1019774843        1.0641593957
 H          0.9318930679       -3.9487601469        1.0874419553
 H          2.4480587617       -3.2976315601        1.7407367036
 H          3.0615685283       -2.3414587597       -0.3808522534
 H          2.1281576126       -3.7173407273       -0.9735798196
 H          0.2538215858       -1.9316736141        2.3617478469
 H         -1.7961801459        0.5459912573        0.6268956251
