  48
        -65.77531720
 Si         2.1100844112       -2.5854470230       -0.5908346694
 C          3.9236156065       -2.4654965741       -1.1443988767
 H          4.0708447199       -1.6717652785       -1.8696449609
 H          4.2415361389       -3.3947769594       -1.6036745207
 H          4.5831336846       -2.2689755334       -0.3056174144
 C          1.8088480345       -3.8784270637        0.7686344394
 H          2.0182489752       -4.8869161669        0.4275218349
 H          0.7695856476       -3.8440165627        1.0852140762
 H          2.4259461228       -3.6903405855        1.6430117163
 C          0.9656990915       -2.9413936377       -2.0738444746
 O          1.8749706469       -1.0644643648        0.0091596050
 H          1.2742331940       -3.8388091277       -2.6002336499
 H          0.9630908269       -2.1260549364       -2.7923407897
 H         -0.0555512073       -3.0987131909       -1.7388425240
 C          0.8517467128       -0.5586518605        0.7341645937
 C          0.9903976017       -0.2318091136        2.0116789954
 H          1.9189653108       -0.3975922161        2.5261010560
 H          0.1809196229        0.2099154953        2.5617155397
 C         -0.4360128006       -0.3697479863        0.0105248444
 C         -1.5388078418       -1.3331009727        0.3225007133
 O         -2.7254882261       -0.7189029350        0.2088883372
 C         -0.4607011227        0.2747599237       -1.3591443068
 C         -0.6525175259        2.2347095985        0.4376436807
 C         -1.3737510507        2.8515391446        1.3696111242
 C          0.6801689466        2.7635649003       -0.0210881706
 O         -1.4230654569       -2.4762226141        0.6669369090
 C         -0.9767883317        4.1344097188        2.0290911382
 C          1.2319225421        3.8142076687        0.9370783812
 H          0.5621178332        3.1961856841       -1.0202446360
 H          1.3895862463        1.9371323398       -0.0986218169
 C          0.1486497728        4.8310815242        1.2723700465
 H         -0.6554330155        3.9164488325        3.0533866709
 H         -1.8494284773        4.7888919907        2.1021475297
 H          2.0947673918        4.3069218306        0.4857472542
 H          1.5630747278        3.3249261995        1.8548965882
 H          0.5576048121        5.6439219024        1.8746963302
 H         -0.2429308919        5.2593256894        0.3473051290
 C         -1.5156248579       -0.1546477266       -2.3639349654
 C         -1.1056583695        0.9806801392       -0.1975429072
 H          0.4992237048        0.5865190747       -1.7435137686
 C         -2.5825808794        0.5917613204       -0.3401208590
 C         -2.8052239148        0.5043963312       -1.8521154525
 H         -2.9110845111        1.5118751406       -2.2547482560
 H         -3.6987861388       -0.0706302253       -2.0880911982
 H         -1.6222187576       -1.2404313701       -2.3902725498
 H         -1.2599222006        0.1841822368       -3.3670715416
 H         -3.2948956971        1.2418977497        0.1667116899
 H         -2.3073069594        2.4265382990        1.7117337294
