  48
        -65.77657578
 Si         2.8880321931       -0.8875935841       -0.4535223574
 C          3.6338710650        0.1079364593        0.9937517051
 H          3.2340793728       -0.2162276337        1.9505966487
 H          3.4188263863        1.1681341335        0.8941886169
 H          4.7129848907        0.0000200142        1.0361647316
 C          3.6180008175       -2.6491505364       -0.4787822532
 H          4.6284734914       -2.6523414589       -0.8751447811
 H          3.0192285813       -3.3079776775       -1.1016648908
 H          3.6590023269       -3.0910879846        0.5126479212
 C          3.1868429567       -0.0069422294       -2.1105637389
 O          1.2472827557       -0.8928553936       -0.4017187819
 H          2.8398592167       -0.6047070017       -2.9474128397
 H          4.2452668029        0.1777900225       -2.2577436434
 H          2.6750164670        0.9488294229       -2.1544856992
 C          0.3148198035       -1.3903485274        0.4443676195
 C          0.5939678990       -2.0866913702        1.5378530876
 H          1.6099946029       -2.3153533648        1.7992781734
 H         -0.1844181324       -2.4710315311        2.1668735009
 C         -1.0664884364       -1.0312736774        0.0293675307
 C         -2.2454988449       -1.6550938874        0.7136099691
 O         -3.2574530170       -0.7728159162        0.7670451915
 C         -1.2938512163       -0.5333505135       -1.3946519629
 C         -0.6169301530        1.5690423695        0.1066960451
 C          0.1183817300        2.2103386129       -0.7933372207
 C         -0.6273850487        1.9453841235        1.5644419436
 O         -2.3262913492       -2.7507345432        1.1924115037
 C          1.0191479716        3.3596882625       -0.4708725798
 C          0.5860006286        2.7975422347        1.9216006599
 H         -0.6426950079        1.0355680232        2.1704382124
 H         -1.5451511751        2.5004623487        1.7867880717
 C          0.7323292412        3.9322774514        0.9143020060
 H          0.9084272296        4.1360675104       -1.2325945910
 H          2.0561296020        3.0093657198       -0.5205509486
 H          1.4812831469        2.1744137816        1.8978524149
 H          0.4759250969        3.1957772188        2.9318979950
 H         -0.1954432095        4.5077850514        0.8854874733
 H          1.5370443647        4.6066710355        1.2128318974
 C         -2.6321084226       -0.8017508031       -2.0591165945
 C         -1.4639378089        0.4142895399       -0.2528071885
 H         -0.4072049137       -0.5050163550       -2.0097759975
 C         -2.9757946002        0.3963432414       -0.0003386650
 C         -3.5823081428        0.2069304105       -1.3937425730
 H         -3.5648554706        1.1594328981       -1.9236325083
 H         -4.6083170172       -0.1514963770       -1.3334281207
 H         -2.9660985136       -1.8258304448       -1.8810815673
 H         -2.5708416703       -0.6484022714       -3.1356711941
 H         -3.3705058959        1.2549769206        0.5436347824
 H          0.1016159847        1.8953890300       -1.8273329667
