  48
        -65.77527536
 Si         1.6466856417        2.2802229059        0.4892697262
 C          1.3134453336        1.8224356305        2.3093055118
 H          1.6324811125        0.8079800656        2.5291882695
 H          0.2601908889        1.9059816809        2.5646867210
 H          1.8577570528        2.4831943685        2.9764004463
 C          3.5017483921        2.1324874373        0.1057922344
 H          3.7201000102        2.3894439618       -0.9270527510
 H          3.8282849743        1.1086362909        0.2670246426
 H          4.1025000163        2.7759773647        0.7398183646
 C          0.9385080401        4.0068065877        0.1177576939
 O          0.7672912669        1.3181916604       -0.5201527614
 H         -0.1307437807        4.0456886514        0.3005639245
 H          1.1047863748        4.2960594480       -0.9150091048
 H          1.4051292746        4.7547508154        0.7492885421
 C          1.0529142579        0.1823656159       -1.1955024799
 C          1.6118988660        0.1878758285       -2.3966403528
 H          1.8930149373        1.1114519477       -2.8679289497
 H          1.8112862704       -0.7252823278       -2.9244568334
 C          0.6647539808       -1.0641685339       -0.4816086063
 C          1.4637651756       -1.4064452078        0.7374748584
 O          0.6808846848       -2.0089204175        1.6450534258
 C         -0.0462534085       -2.1931004987       -1.1981752564
 C         -1.8888971665       -0.4611545093       -0.3155407974
 C         -2.5085584802       -0.2929779939       -1.4783115405
 C         -2.2183773208        0.3722192868        0.8942636354
 O          2.6173286863       -1.1470336859        0.9399851811
 C         -3.5689807804        0.7320693009       -1.7264075076
 C         -2.8893185805        1.6767466023        0.4794931263
 H         -1.3003775666        0.5804964773        1.4465025084
 H         -2.8865520498       -0.1906197412        1.5554772432
 C         -4.0701221194        1.3697617751       -0.4338078590
 H         -4.3991676155        0.2755292410       -2.2721344018
 H         -3.1445539023        1.5031695324       -2.3787012318
 H         -2.1642069140        2.2932526381       -0.0543842772
 H         -3.2214817546        2.2236848615        1.3638534853
 H         -4.7472840917        0.6808153752        0.0759610512
 H         -4.6268957890        2.2806628645       -0.6608387886
 C          0.1895819704       -3.6187424758       -0.7297657684
 C         -0.7772885013       -1.4165929894       -0.1433439461
 H         -0.2427329071       -2.0288925425       -2.2468970746
 C         -0.6147691205       -2.2849738310        1.1097218314
 C         -0.6180582035       -3.7192457222        0.5740028226
 H         -1.6453572141       -4.0191366489        0.3666932126
 H         -0.1810551087       -4.4112091081        1.2917241016
 H          1.2497846309       -3.8026063233       -0.5451344021
 H         -0.1543833968       -4.3370946196       -1.4725033677
 H         -1.3419262012       -2.1088129988        1.9022360945
 H         -2.2355259415       -0.8945883445       -2.3340931427
