  48
        -65.77525999
 Si         2.0681519592       -2.6595946979       -0.3490917689
 C          0.6660507935       -3.3799207163       -1.4190111795
 H         -0.2603007092       -3.4198261484       -0.8526472266
 H          0.8931955310       -4.3912082664       -1.7404248039
 H          0.4903584603       -2.7853309755       -2.3117314915
 C          3.6952254858       -2.5386666191       -1.3221100523
 H          4.0356978008       -3.5263825752       -1.6119178630
 H          4.4800289679       -2.0784113760       -0.7311675204
 H          3.5796442102       -1.9518829683       -2.2277176426
 C          2.2202552669       -3.6633680030        1.2592079673
 O          1.8067390294       -1.0686542876        0.0089580090
 H          1.2831798997       -3.6290980216        1.8088576351
 H          2.9966825037       -3.2655645957        1.9070171791
 H          2.4528096446       -4.7058518228        1.0687772939
 C          0.8287719877       -0.5064999742        0.7582320447
 C          1.0379316754       -0.0902725642        1.9990883977
 H          1.9921661206       -0.2252288298        2.4739382064
 H          0.2596845512        0.3929104429        2.5592661909
 C         -0.4942292238       -0.3644173293        0.0913054122
 C         -1.6152161645       -1.2090041840        0.6123640982
 O         -2.7803305780       -0.5607980133        0.4661399444
 C         -0.5734174620        0.0669891800       -1.3571648669
 C         -0.5732647983        2.2765059944        0.1387215041
 C         -1.2146187651        3.0578062339        1.0033543673
 C          0.7625128099        2.6564931491       -0.4419598538
 O         -1.5253745610       -2.2880733549        1.1283384358
 C         -0.7177759781        4.3922029543        1.4622509420
 C          1.4180090264        3.7865282092        0.3453564825
 H          0.6201910445        2.9622549439       -1.4838992857
 H          1.4202141460        1.7850727547       -0.4387790928
 C          0.4132833979        4.9072252612        0.5790139684
 H         -0.3672544792        4.2968079756        2.4957295610
 H         -1.5477139747        5.1038075056        1.4726392667
 H          2.2879509199        4.1580825304       -0.1987868563
 H          1.7594397285        3.4021738681        1.3082924239
 H          0.8961907847        5.7641849292        1.0514979316
 H          0.0080796606        5.2340980564       -0.3808852699
 C         -1.7015920414       -0.4609473379       -2.2258081216
 C         -1.1189421480        0.9720645573       -0.2868428332
 H          0.3748598795        0.2668985665       -1.8339137539
 C         -2.6162837510        0.6395730384       -0.2900323772
 C         -2.9315181327        0.3299596919       -1.7558939145
 H         -3.0217026754        1.2669659531       -2.3056707991
 H         -3.8593785125       -0.2310940346       -1.8511113421
 H         -1.8508498943       -1.5316967341       -2.0751250188
 H         -1.4931738558       -0.2932915227       -3.2817617499
 H         -3.2705489675        1.3951999144        0.1434544991
 H         -2.1519542288        2.7407031185        1.4391671483
