  48
        -65.77525709
 Si         1.7736792830        2.1434491052        0.5038699114
 C          1.3490082692        1.7030696487        2.3093545774
 H          0.3061426939        1.9025147711        2.5418028694
 H          1.9483059186        2.2905308756        2.9974967389
 H          1.5469790685        0.6568717890        2.5228959366
 C          3.6201360287        1.8460356311        0.1694079208
 H          4.2548699323        2.4415569446        0.8170360692
 H          3.8833946625        2.0807529433       -0.8583336070
 H          3.8594097284        0.7998413985        0.3398348773
 C          1.2227760214        3.9260919038        0.1313108721
 O          0.8485074365        1.2665064128       -0.5417919780
 H          0.1520621962        4.0478283000        0.2614916549
 H          1.4636847240        4.2170267733       -0.8860999217
 H          1.7144878875        4.6244489537        0.7994725074
 C          1.0598911846        0.1121907488       -1.2133062364
 C          1.6157223999        0.0804608916       -2.4155386351
 H          1.9546207901        0.9837099610       -2.8882586414
 H          1.7558397087       -0.8442031804       -2.9423622612
 C          0.5934077705       -1.1068627954       -0.4986969895
 C          1.3741739277       -1.5108886461        0.7129928202
 O          0.5556771490       -2.0574813286        1.6248789450
 C         -0.2008463814       -2.1792664139       -1.2137915526
 C         -1.9058355121       -0.3194080101       -0.3127787477
 C         -2.4604575067       -0.0460961226       -1.4885492173
 C         -2.2289644533        0.4742127270        0.9252384846
 O          2.5452329489       -1.3387791634        0.9077241956
 C         -3.4323686087        1.0658553605       -1.7240158438
 C         -2.7805068598        1.8458815928        0.5531011454
 H         -1.3257392068        0.5833783861        1.5280403296
 H         -2.9682702808       -0.0683445887        1.5249022490
 C         -3.9400339425        1.6771314804       -0.4213439296
 H         -4.2698678854        0.6996152143       -2.3240451371
 H         -2.9252952029        1.8330529826       -2.3194148975
 H         -1.9880888493        2.4295064577        0.0813481695
 H         -3.1087973039        2.3727243342        1.4510979893
 H         -4.6897549287        1.0197147196        0.0245141186
 H         -4.4148847478        2.6389532627       -0.6230811678
 C         -0.0634820883       -3.6198567753       -0.7521376573
 C         -0.8684952778       -1.3565995959       -0.1511111622
 H         -0.3920925226       -1.9988763813       -2.2607680540
 C         -0.7598285533       -2.2397547918        1.0971232895
 C         -0.8666265540       -3.6684324622        0.5571715696
 H         -1.9136979029       -3.8959436842        0.3569702884
 H         -0.4732501150       -4.3911936081        1.2697688531
 H          0.9823752054       -3.8791102123       -0.5763011047
 H         -0.4628981513       -4.3088306014       -1.4949501280
 H         -1.4673288602       -2.0175391626        1.8957249378
 H         -2.1925440326       -0.6191636467       -2.3651838444
