  48
        -65.77524519
 Si         2.9692707120        0.6482011657       -0.2927041969
 C          3.1695531464        1.1743129147        1.5213146619
 H          4.1700465647        1.5526498966        1.7009941294
 H          3.0090160622        0.3357061395        2.1914786268
 H          2.4686042383        1.9560553876        1.7966250049
 C          4.1723199069       -0.7455476076       -0.7745289867
 H          5.1855905348       -0.5378073487       -0.4462784079
 H          4.2036612888       -0.9045833547       -1.8487614896
 H          3.8594936345       -1.6808422368       -0.3181097046
 C          3.1660564431        2.1548920579       -1.4509938895
 O          1.4149410380        0.1064382414       -0.2958267508
 H          4.1103059412        2.6608609029       -1.2781638197
 H          2.3733233308        2.8804381502       -1.2894741012
 H          3.1373008057        1.8732918214       -2.4998699204
 C          0.6699606845       -0.6153081120       -1.1559297947
 C          0.9042589971       -0.7390108402       -2.4539031025
 H          1.7437661902       -0.2548910849       -2.9156490131
 H          0.2712772683       -1.3421994809       -3.0761606373
 C         -0.4665502368       -1.2777511732       -0.4593117692
 C         -0.0946561524       -2.3206259324        0.5550489660
 O         -0.9750050389       -2.3035780158        1.5686937988
 C         -1.8489225482       -1.3423114254       -1.0732021713
 C         -1.6312880974        0.9680413442        0.2633305975
 C         -2.1408218191        1.7496638783       -0.6816795536
 C         -0.9585859297        1.5211479132        1.4915680124
 O          0.8605784935       -3.0429765008        0.5311469940
 C         -2.1030072327        3.2446598688       -0.6452242316
 C         -0.5297397359        2.9674768858        1.2698881936
 H         -0.0896086243        0.9047496869        1.7302882868
 H         -1.6490543293        1.4683852985        2.3402522683
 C         -1.7057584104        3.7728655092        0.7301107858
 H         -3.0786229783        3.6421037922       -0.9376912563
 H         -1.3819535021        3.5863979611       -1.3961811228
 H          0.2890525128        2.9892569273        0.5481991623
 H         -0.1709929245        3.3972277949        2.2070900280
 H         -2.5503455302        3.6768730765        1.4158701011
 H         -1.4471401351        4.8311503422        0.6617720820
 C         -2.7392335845       -2.5271319893       -0.7400437216
 C         -1.6254846103       -0.5040878775        0.1499354687
 H         -1.9485210745       -0.8874948015       -2.0473552907
 C         -2.0654393108       -1.4237623299        1.2955681990
 C         -3.2102057593       -2.2452479154        0.6957115288
 H         -4.1172862308       -1.6406737682        0.6901651144
 H         -3.3884118279       -3.1529480989        1.2694124268
 H         -2.1818316767       -3.4645076278       -0.7888285781
 H         -3.5773110121       -2.5946675277       -1.4322780542
 H         -2.3248497494       -0.9205144616        2.2271615105
 H         -2.6005570715        1.3148658710       -1.5586030983
