  48
        -65.77520242
 Si         0.4254935717        3.3300024706        0.2504304986
 C          0.7187877147        4.0632052780        1.9821568296
 H         -0.2178992243        4.2457896325        2.5018038132
 H          1.2572885498        5.0040585005        1.9371384327
 H          1.3038633137        3.3779939108        2.5898715583
 C          2.0981737554        3.0063645341       -0.6005048628
 H          2.6759718238        2.2811156328       -0.0331098371
 H          2.6927496410        3.9110736856       -0.6737738157
 H          1.9707228013        2.6172935301       -1.6074198468
 C         -0.7312167215        4.3964294442       -0.8141122579
 O         -0.4563158686        1.9391307317        0.3703529793
 H         -0.3155913936        5.3894039040       -0.9436189283
 H         -1.7078968435        4.5044324034       -0.3540323702
 H         -0.8788538954        3.9707572809       -1.8015768916
 C         -0.1183642123        0.7691839835        0.9672759195
 C         -0.4902369656        0.4678527091        2.2029602992
 H         -1.0427083741        1.1691091028        2.8006380656
 H         -0.2458306481       -0.4828248599        2.6379498527
 C          0.6782787020       -0.1688840325        0.1318960037
 C          2.0243031189       -0.5739625147        0.6485630406
 O          2.3063035156       -1.8252817531        0.2564800943
 C          0.4776911090       -0.2096891003       -1.3673214591
 C         -1.2614588271       -1.9150836032       -0.2818816834
 C         -1.4755085213       -3.0717259388        0.3392308855
 C         -2.3925965630       -1.0322046274       -0.7372663481
 O          2.7556567733        0.0758493427        1.3422813382
 C         -2.8310604707       -3.6404860989        0.6169263412
 C         -3.7131112829       -1.4254023204       -0.0830042262
 H         -2.4806385425       -1.1056823648       -1.8264546822
 H         -2.1637695667        0.0068004610       -0.4930590682
 C         -3.9155475426       -2.9315043929       -0.1867266272
 H         -3.0381139042       -3.5407440157        1.6879763201
 H         -2.8278110278       -4.7104304821        0.3920871057
 H         -4.5353310267       -0.8932688882       -0.5644357979
 H         -3.6928167292       -1.1366192127        0.9695039893
 H         -4.9017979223       -3.2135290405        0.1856138569
 H         -3.8506577347       -3.2328231488       -1.2343278619
 C          1.6610972728       -0.5359542221       -2.2609904427
 C          0.1005746264       -1.4088343634       -0.5423022620
 H         -0.2715375418        0.4658761407       -1.7527594297
 C          1.3335970306       -2.3118736064       -0.6689393132
 C          1.8492474439       -2.0504181770       -2.0867137859
 H          1.2317568867       -2.6006220335       -2.7968899740
 H          2.8855566761       -2.3652487607       -2.1949107024
 H          2.5565833936        0.0030546746       -1.9455710435
 H          1.4535937921       -0.2716609458       -3.2971716905
 H          1.1724573983       -3.3676980459       -0.4542595689
 H         -0.6454047807       -3.6655477879        0.6959108470
