  48
        -65.77520210
 Si         1.8837323854        2.4705416423        0.4541992705
 C          3.6626527597        1.8657102775        0.7360767472
 H          3.6493844211        0.8733522921        1.1792745300
 H          4.2186073242        2.5219655051        1.3975136670
 H          4.2152194415        1.7955880379       -0.1969511370
 C          1.8334220645        3.9056625104       -0.8059173887
 H          0.8179659121        4.1027074689       -1.1389672879
 H          2.4315560727        3.6978123580       -1.6888144211
 H          2.2157343100        4.8214517111       -0.3669679419
 C          1.0019989808        2.9775869071        2.0595019880
 O          0.9291560011        1.2201178676       -0.0438162891
 H          1.5179022318        3.8055410376        2.5334360620
 H          0.9755327394        2.1556566065        2.7679435458
 H         -0.0217978706        3.2910988181        1.8782732361
 C          1.1302741503        0.1929082822       -0.8960492955
 C          1.7173011497        0.3037363001       -2.0784044151
 H          2.0826701502        1.2517064793       -2.4258956906
 H          1.8556125827       -0.5487909725       -2.7152622876
 C          0.6295442190       -1.0943006408       -0.3406059022
 C          1.3000992434       -1.5499985152        0.9231891933
 O          0.4249148151       -2.2149744634        1.6925614103
 C         -0.0200742378       -2.1458574744       -1.2170601727
 C         -1.9490126183       -0.4950681467       -0.3851862599
 C         -2.6738448610       -0.5014975614       -1.4979453310
 C         -2.1568221808        0.5094305951        0.7148991891
 O          2.4292295776       -1.3307123935        1.2604483656
 C         -3.7657092585        0.4799297765       -1.7857238799
 C         -3.4965151873        1.2247018669        0.5764688947
 H         -1.3373424072        1.2326870425        0.6704699762
 H         -2.0909523564        0.0145009621        1.6871191072
 C         -3.6816037017        1.6916580948       -0.8623825668
 H         -4.7332511640       -0.0186811554       -1.6595629963
 H         -3.7031479061        0.7940509526       -2.8307848517
 H         -3.5348345801        2.0733678499        1.2615905627
 H         -4.3075090591        0.5416122612        0.8396222995
 H         -4.5850792916        2.2969068869       -0.9567155059
 H         -2.8274192001        2.3077371855       -1.1500134643
 C          0.1585972389       -3.6100435649       -0.8546997416
 C         -0.8391915758       -1.4477741008       -0.1740776233
 H         -0.1209747298       -1.8847175524       -2.2599685009
 C         -0.8098860106       -2.4243367795        1.0091315949
 C         -0.7717637531       -3.8075151236        0.3526708408
 H         -1.7767168220       -4.0721461828        0.0235386580
 H         -0.4115373425       -4.5645530174        1.0469849730
 H          1.1945159201       -3.8264708035       -0.5867666895
 H         -0.1184804507       -4.2568403778       -1.6859741870
 H         -1.6160736985       -2.3064107595        1.7341087169
 H         -2.4960465971       -1.2511372989       -2.2571282669
