  48
        -65.77519879
 Si         3.0184093946        0.2761832516       -0.2869845465
 C          3.3116942601        0.7621242069        1.5252248162
 H          2.6802863017        1.5895268520        1.8327788226
 H          4.3428137667        1.0624668445        1.6770085381
 H          3.1098177262       -0.0715930600        2.1901914314
 C          4.1371880447       -1.1700218171       -0.8186413392
 H          3.8013511235       -2.0935184750       -0.3549438574
 H          5.1694621852       -1.0083384007       -0.5251968633
 H          4.1254150516       -1.3250359189       -1.8938213035
 C          3.2637729419        1.7795906952       -1.4406095578
 O          1.4353664240       -0.1718986958       -0.2444428934
 H          2.5286403938        2.5541785633       -1.2393046197
 H          3.1686700546        1.5104711671       -2.4888441734
 H          4.2461995372        2.2207576672       -1.3074466043
 C          0.6021186567       -0.7806924847       -1.1105447771
 C          0.8376795067       -0.9645465480       -2.4012653328
 H          1.7511560732       -0.6287873346       -2.8539425227
 H          0.1293231546       -1.4741063126       -3.0259967412
 C         -0.6411922700       -1.2402177720       -0.4327836367
 C         -0.4735543316       -2.3178428311        0.5998450206
 O         -1.3638983229       -2.1408161934        1.5895374016
 C         -1.9996286356       -1.0879486907       -1.0837626325
 C         -1.4455122720        1.1764862944        0.2342669371
 C         -1.7811431186        2.0137119648       -0.7404937972
 C         -0.7486768074        1.6353005238        1.4876794378
 O          0.3453901195       -3.1915762227        0.6064406512
 C         -1.5089683401        3.4844700328       -0.7143581266
 C         -0.0959358140        2.9977450079        1.2808819072
 H          0.0053657623        0.8963645404        1.7665974398
 H         -1.4745142195        1.6965633599        2.3057391155
 C         -1.1072427237        3.9648635478        0.6769766060
 H         -2.3927025761        4.0256351122       -1.0627992583
 H         -0.7041626370        3.6968036075       -1.4270176607
 H          0.7517853209        2.8874160245        0.6021084684
 H          0.2764979908        3.3801210477        2.2331760083
 H         -1.9906488033        4.0064068339        1.3177879879
 H         -0.6877906848        4.9708413416        0.6170540297
 C         -3.0797796280       -2.1066855842       -0.7629457377
 C         -1.6733349854       -0.2791101335        0.1362711123
 H         -1.9993146712       -0.6376119229       -2.0650306127
 C         -2.2873973164       -1.0980141539        1.2783793963
 C         -3.5359928040       -1.7289809630        0.6553153881
 H         -4.3302490334       -0.9832925914        0.6169142792
 H         -3.8768439648       -2.5858530235        1.2335756953
 H         -2.6814396280       -3.1228516823       -0.7847640923
 H         -3.8989804231       -2.0482048458       -1.4781943631
 H         -2.4845731190       -0.5464820472        2.1977524518
 H         -2.2649057540        1.6435531655       -1.6339115570
