  48
        -65.77520183
 Si         2.0262471949        2.3818742054       -0.2735518036
 C          1.7583423465        2.9519472171        1.5194536408
 H          0.7476486382        3.3137144107        1.6834731188
 H          2.4384202007        3.7591158165        1.7689120996
 H          1.9369339119        2.1413979156        2.2189349890
 C          3.7688265007        1.6928828111       -0.5876929715
 H          4.5420905030        2.3255534690       -0.1645574983
 H          3.9740315145        1.5898569668       -1.6497870311
 H          3.8613343657        0.7051696265       -0.1435775158
 C          1.6162844032        3.8017270120       -1.4843936777
 O          0.9078973590        1.1738412511       -0.3857222389
 H          0.5554508588        4.0369820019       -1.4717052552
 H          1.8838802243        3.5574163667       -2.5086929280
 H          2.1537721537        4.7062671219       -1.2190661919
 C          0.7604977981        0.1342853650       -1.2340750880
 C          0.9104323618        0.2121019048       -2.5479649643
 H          1.1745692015        1.1402828230       -3.0186748526
 H          0.7852281034       -0.6487745620       -3.1762505417
 C          0.4258703913       -1.1256432134       -0.5152571442
 C          1.4705316279       -1.6108268004        0.4479152331
 O          0.8860689064       -2.2315124565        1.4839137395
 C         -0.5327351662       -2.1461848939       -1.0946175823
 C         -1.9796884593       -0.4026856855        0.3219528782
 C         -3.0439902801       -0.3751061185       -0.4718611305
 C         -1.7488037123        0.6117745611        1.4082417491
 O          2.6552360402       -1.4454718704        0.3712065377
 C         -4.1228511502        0.6574123578       -0.3815861172
 C         -3.0196344364        1.3916069039        1.7282256979
 H         -0.9631943521        1.2940922319        1.0708564378
 H         -1.3736040647        0.1151464674        2.3066032294
 C         -3.6697209696        1.8648844262        0.4336404287
 H         -5.0077999313        0.2062103784        0.0809220395
 H         -4.4126756767        0.9666406353       -1.3890914690
 H         -2.7798254562        2.2421212040        2.3687220442
 H         -3.7196637656        0.7495296779        2.2678823844
 H         -4.5216355090        2.5133447176        0.6462767881
 H         -2.9408463719        2.4381470932       -0.1425493643
 C         -0.3051962734       -3.6166186561       -0.7895697528
 C         -0.9092350236       -1.4076085172        0.1539290129
 H         -0.9756262140       -1.8822135673       -2.0434075491
 C         -0.5167632857       -2.3824784482        1.2720302152
 C         -0.7693477816       -3.7669646042        0.6678853786
 H         -1.8368937521       -3.9834009188        0.7102447997
 H         -0.2257716043       -4.5393222866        1.2090947010
 H          0.7488725825       -3.8819257816       -0.8912372741
 H         -0.8805457624       -4.2508767330       -1.4624946293
 H         -1.0170145613       -2.2247657239        2.2282325231
 H         -3.1734083411       -1.1329752413       -1.2326559476
