  48
        -65.77518294
 Si         1.7227062474        2.6038177408        0.4496441639
 C          3.5606410354        2.1405605399        0.5788345821
 H          4.1176130944        2.8405429561        1.1928379629
 H          4.0363863956        2.1094145167       -0.3976339328
 H          3.6602836295        1.1522555537        1.0198595643
 C          1.4608455986        4.0691345259       -0.7478597937
 H          1.8244520027        4.9950088794       -0.3143259375
 H          0.4077114088        4.2077567432       -0.9768988898
 H          1.9830344858        3.9273465163       -1.6900108140
 C          0.9284322710        2.9785734171        2.1345011667
 O          0.8367188804        1.2991252028       -0.0361847058
 H         -0.1340609241        3.1842066586        2.0450123458
 H          1.3921849548        3.8452967585        2.5927868125
 H          1.0465171525        2.1414688393        2.8153085973
 C          1.0803470962        0.2975769031       -0.9078414445
 C          1.6068944447        0.4655951700       -2.1118044567
 H          1.8815624020        1.4432342270       -2.4608183832
 H          1.7852037189       -0.3661613329       -2.7658440733
 C          0.7002294634       -1.0271303315       -0.3458972270
 C          1.4171235538       -1.4159539503        0.9150979238
 O          0.6074736191       -2.1472289744        1.6961030141
 C          0.1386602727       -2.1376446849       -1.2104819375
 C         -1.9213046728       -0.6563420451       -0.3770903106
 C         -2.6639229933       -0.7541817628       -1.4736885343
 C         -2.1943732203        0.3537049460        0.7033947538
 O          2.5268745172       -1.1012818745        1.2407460473
 C         -3.8419398202        0.1217155456       -1.7618393612
 C         -3.5933674770        0.9472631271        0.5761757117
 H         -1.4413440057        1.1435477208        0.6262494392
 H         -2.0674648921       -0.1101852075        1.6848748976
 C         -3.8457768824        1.3592038047       -0.8692955273
 H         -4.7600404928       -0.4550847787       -1.6038570886
 H         -3.8263931520        0.4134978809       -2.8150963251
 H         -3.6921697638        1.8069467584        1.2412027169
 H         -4.3369356501        0.2038400430        0.8727454589
 H         -4.8000815795        1.8814623789       -0.9586548942
 H         -3.0542106948        2.0393518082       -1.1897766376
 C          0.4476659753       -3.5776237162       -0.8385772263
 C         -0.7308183016       -1.5061965124       -0.1660774712
 H          0.0061005133       -1.8949859384       -2.2542423162
 C         -0.6093239714       -2.4674607229        1.0236061432
 C         -0.4554286064       -3.8467375074        0.3757658625
 H         -1.4355054409       -4.1995596861        0.0545091811
 H         -0.0270544951       -4.5650219048        1.0725374732
 H          1.4999725142       -3.6997964494       -0.5749050736
 H          0.2246117300       -4.2528875712       -1.6634148728
 H         -1.4180280971       -2.4138653848        1.7534279667
 H         -2.4358844038       -1.5052101301       -2.2179783971
