  48
        -65.77514751
 Si         1.6577546198        2.5812288221        0.7407696406
 C          1.1505000351        4.2295882549       -0.0804133211
 H          1.5198210688        4.3110344008       -1.0989342620
 H          1.5417478042        5.0765372851        0.4735579516
 H          0.0696271496        4.3349220870       -0.1168531265
 C          1.1095627086        2.5481036332        2.5595955288
 H          0.0347257166        2.6651159023        2.6607406572
 H          1.5807901789        3.3492134238        3.1185778937
 H          1.3850347867        1.6094968195        3.0302269208
 C          3.5138301635        2.2413244605        0.5211312994
 O          0.7669591730        1.3427663893        0.1112078332
 H          3.8367572808        2.4168748366       -0.5014160283
 H          3.7255866329        1.2014101663        0.7551855709
 H          4.1233605151        2.8624984149        1.1690163454
 C          0.9551064654        0.5206856051       -0.9428947968
 C          1.3324267358        0.9245224387       -2.1468523936
 H          1.5199772202        1.9632595858       -2.3445871038
 H          1.4732923680        0.2297837156       -2.9523477470
 C          0.7012727181       -0.9007751232       -0.5829067999
 C          1.5608893501       -1.4413087813        0.5236570933
 O          0.8709569271       -2.3389729030        1.2435362278
 C          0.1108489351       -1.8913501119       -1.5657494467
 C         -1.9254552698       -0.7026809877       -0.3128083845
 C         -2.7701748184       -0.6748154287       -1.3371383608
 C         -2.1369054019        0.1038513944        0.9389970340
 O          2.6820296462       -1.1133667048        0.7922276611
 C         -4.0144668200        0.1551294147       -1.3670605314
 C         -3.5689743596        0.6184202714        1.0403525047
 H         -1.4351064348        0.9430332796        0.9232054496
 H         -1.8884559505       -0.5003234002        1.8152744937
 C         -3.9878768606        1.2346320889       -0.2891785304
 H         -4.8807755777       -0.4990519115       -1.2182638262
 H         -4.1235047689        0.6082371861       -2.3557188675
 H         -3.6412158466        1.3550810144        1.8423423174
 H         -4.2410885030       -0.2087454489        1.2802654473
 H         -4.9708552531        1.7013465344       -0.2032892574
 H         -3.2676881913        2.0065045606       -0.5673733949
 C          0.5268869329       -3.3491175857       -1.4689672073
 C         -0.6787118207       -1.4951417172       -0.3553031029
 H         -0.1388158057       -1.4930972292       -2.5378004804
 C         -0.3902324463       -2.6254884965        0.6412778631
 C         -0.2343095283       -3.8691237008       -0.2389660693
 H         -1.2231231600       -4.2290851088       -0.5235002135
 H          0.2974534901       -4.6606889569        0.2859939399
 H          1.6052276886       -3.4430610851       -1.3270483305
 H          0.2551465971       -3.8958314554       -2.3708405578
 H         -1.1227468184       -2.7431806380        1.4406850883
 H         -2.5816592987       -1.2819059536       -2.2122890318
