  48
        -65.77517433
 Si         0.2954832168        3.3424162694        0.1214662953
 C          2.0202461702        3.0537437403       -0.6322487900
 H          2.5863406678        3.9763677686       -0.7080156481
 H          1.9587466711        2.6260637643       -1.6296805679
 H          2.5930063847        2.3688394157       -0.0117367574
 C         -0.8740482568        4.2552726192       -1.0651462019
 H         -1.8780334336        4.3232644500       -0.6592271896
 H         -0.9422016681        3.7585994132       -2.0279384165
 H         -0.5201659659        5.2648291757       -1.2413330011
 C          0.4657681289        4.2215160028        1.8013602837
 O         -0.5069371031        1.9120419897        0.3120933062
 H          1.0671976669        3.6269969518        2.4839638034
 H         -0.5027573194        4.3789930544        2.2682110640
 H          0.9429955400        5.1908892496        1.7026576087
 C         -0.0991204159        0.7932950998        0.9625025240
 C         -0.4157810335        0.5483995351        2.2256536050
 H         -0.9775855118        1.2593493128        2.8028106289
 H         -0.1145932214       -0.3641420476        2.7044134466
 C          0.7090373455       -0.1561893303        0.1520561722
 C          2.0617082866       -0.5276618577        0.6769288534
 O          2.3620301041       -1.7844617162        0.3175681016
 C          0.5070573699       -0.2403112570       -1.3451598853
 C         -1.2049727182       -1.9426412659       -0.2144061837
 C         -1.4019679417       -3.0907372086        0.4279439296
 C         -2.3491190696       -1.0838369813       -0.6833751801
 O          2.7844156448        0.1513640806        1.3514268915
 C         -2.7491167628       -3.6731719935        0.7180716760
 C         -3.6633639936       -1.4842081641       -0.0208210188
 H         -2.4374052042       -1.1776175713       -1.7709829393
 H         -2.1350506144       -0.0375453146       -0.4580643372
 C         -3.8441754865       -2.9946728369       -0.0974600475
 H         -2.9566193213       -3.5563339996        1.7873060181
 H         -2.7309533965       -4.7469886564        0.5132350423
 H         -4.4934730405       -0.9725715520       -0.5108846832
 H         -3.6466685152       -1.1765124606        1.0263913343
 H         -4.8260992588       -3.2842977980        0.2804660093
 H         -3.7752464505       -3.3137345553       -1.1395485464
 C          1.6945336747       -0.5713449212       -2.2315077311
 C          0.1491389386       -1.4228311734       -0.4885453070
 H         -0.2531413202        0.4131209092       -1.7468217238
 C          1.3957652733       -2.3098589108       -0.5932119528
 C          1.9060638099       -2.0776958183       -2.0180561065
 H          1.2964218206       -2.6555944822       -2.7128571892
 H          2.9469702884       -2.3794160387       -2.1192596406
 H          2.5817973447       -0.0104447533       -1.9311866389
 H          1.4821382150       -0.3373401831       -3.2739604797
 H          1.2513101392       -3.3620624185       -0.3508081491
 H         -0.5633364162       -3.6666906870        0.7937609520
