  48
        -65.77514723
 Si         1.6870853372        2.5595158397        0.7374887000
 C          1.1951945783        4.2126787329       -0.0834079262
 H          1.5573342977        4.2869080165       -1.1050249957
 H          1.6021048371        5.0555669481        0.4654272645
 H          0.1155813048        4.3323083059       -0.1114193795
 C          1.1437421665        2.5340926797        2.5578696334
 H          0.0721005076        2.6747249814        2.6627492969
 H          1.6342705134        3.3233993611        3.1170317777
 H          1.3999347643        1.5886306836        3.0256323779
 C          3.5387864425        2.1995136034        0.5127414877
 O          0.7820048652        1.3295118605        0.1118568680
 H          3.7400048936        1.1574187117        0.7464868381
 H          4.1569048928        2.8142295832        1.1586552453
 H          3.8606816843        2.3712615004       -0.5107926424
 C          0.9574760223        0.5072261489       -0.9442749147
 C          1.3340251365        0.9088472364       -2.1492147296
 H          1.5315135270        1.9458348730       -2.3463739165
 H          1.4642956197        0.2138356785       -2.9562620663
 C          0.6892409773       -0.9118037113       -0.5853304281
 C          1.5444546250       -1.4635473381        0.5190051834
 O          0.8450423335       -2.3532616999        1.2396592799
 C          0.0841273158       -1.8940699770       -1.5673785135
 C         -1.9321541482       -0.6777140141       -0.3085964247
 C         -2.7705020923       -0.6221793301       -1.3370628405
 C         -2.1366711490        0.1180330121        0.9513027948
 O          2.6700243273       -1.1494395214        0.7855667906
 C         -3.9996059005        0.2301693026       -1.3643299177
 C         -3.5618181628        0.6513709548        1.0523523662
 H         -1.4232078829        0.9475103405        0.9470244236
 H         -1.9004234410       -0.4987590587        1.8220838589
 C         -3.9637468476        1.2930812692       -0.2703085221
 H         -4.8785175409       -0.4108169737       -1.2329977426
 H         -4.0919872473        0.6999006612       -2.3469490986
 H         -3.6284940231        1.3769237482        1.8648753622
 H         -4.2468438631       -0.1697872305        1.2758848826
 H         -4.9403429142        1.7728088178       -0.1832972561
 H         -3.2307476259        2.0584038957       -0.5326890789
 C          0.4820490302       -3.3570197116       -1.4724512989
 C         -0.6978070516       -1.4889676617       -0.3548280727
 H         -0.1623454816       -1.4922149986       -2.5387265840
 C         -0.4211641112       -2.6234847683        0.6402266752
 C         -0.2830353517       -3.8683140004       -0.2412529138
 H         -1.2770088205       -4.2153064980       -0.5239301920
 H          0.2396518143       -4.6670674127        0.2819306124
 H          1.5594102907       -3.4645270952       -1.3327407878
 H          0.2016932559       -3.8996700546       -2.3741375972
 H         -1.1529698725       -2.7328654967        1.4414401212
 H         -2.5880758524       -1.2217740399       -2.2186222538
