  48
        -65.77512928
 Si         1.6428950797        2.3822085127        0.4601897663
 C          1.8151316300        1.7693758673        2.2546108381
 H          0.8524526186        1.5089773183        2.6877802298
 H          2.2598872915        2.5296059597        2.8888388771
 H          2.4464958304        0.8871174820        2.3073968388
 C          3.3652377011        2.7094849177       -0.2805369434
 H          3.9203065056        1.7792086553       -0.3661278906
 H          3.9479922381        3.3838622917        0.3381812597
 H          3.3012201112        3.1485611358       -1.2723996769
 C          0.5123801928        3.9098757451        0.3783984551
 O          0.8012716498        1.3032106397       -0.4565432367
 H         -0.4485661922        3.7218018556        0.8465715630
 H          0.3247418244        4.2182562333       -0.6451291720
 H          0.9692793111        4.7459428771        0.8964804840
 C          1.1380725691        0.1667983830       -1.1074286862
 C          1.7850357005        0.1608300794       -2.2633061660
 H          2.1049522661        1.0783886200       -2.7209419410
 H          2.0193501835       -0.7586424680       -2.7651823948
 C          0.6982015661       -1.0753051565       -0.4148294668
 C          1.4531615615       -1.4431946879        0.8264162612
 O          0.6319761636       -2.0431453343        1.7007450513
 C          0.0062558709       -2.1947867965       -1.1667152529
 C         -1.8771076299       -0.4822582905       -0.3464708638
 C         -2.5672380815       -0.4555123653       -1.4808207475
 C         -2.1562973108        0.4662790174        0.7887725989
 O          2.6045020924       -1.2079766490        1.0660604341
 C         -3.6747442536        0.5076742173       -1.7679783766
 C         -2.9268108554        1.6865358738        0.2967534672
 H         -1.2100543027        0.7765949211        1.2364265624
 H         -2.7375671058       -0.0502917926        1.5605244825
 C         -4.1387966990        1.2350980149       -0.5095892274
 H         -4.5104576877       -0.0244063100       -2.2304143999
 H         -3.3130036280        1.2343685616       -2.5036322124
 H         -2.2725161907        2.2876314237       -0.3366154135
 H         -3.2387310965        2.2973018217        1.1461058990
 H         -4.7450680646        0.5610826428        0.0996617049
 H         -4.7587806397        2.0910929679       -0.7819404066
 C          0.2118653223       -3.6260938097       -0.7011388467
 C         -0.7550249323       -1.4187469388       -0.1337056602
 H         -0.1503605419       -2.0179388494       -2.2203552855
 C         -0.6462925711       -2.2987836581        1.1183504528
 C         -0.6467335125       -3.7284139071        0.5697640094
 H         -1.6688982211       -4.0133514029        0.3202663356
 H         -0.2460368615       -4.4320665270        1.2972411421
 H          1.2623169470       -3.8214260717       -0.4768905254
 H         -0.1096720241       -4.3357214584       -1.4620936377
 H         -1.4003635389       -2.1191995059        1.8848120515
 H         -2.3282771844       -1.1448126115       -2.2791008835
