  48
        -65.77509349
 Si         1.6736571921        2.3774247986        0.4573825195
 C          1.9229812275        1.7468206080        2.2360540660
 H          2.5518482723        0.8612292433        2.2519169429
 H          0.9787625443        1.4845496751        2.7071161501
 H          2.3976690746        2.4984047503        2.8587446939
 C          3.3607708704        2.7525940454       -0.3407200933
 H          3.2505442093        3.2007924821       -1.3244701341
 H          3.9359211267        1.8379575994       -0.4566592207
 H          3.9483079389        3.4350195238        0.2645731971
 C          0.5123695379        3.8837724946        0.4319357137
 O          0.8198770055        1.2916378706       -0.4398807296
 H         -0.4235618861        3.6766559229        0.9409307317
 H          0.2745309943        4.1928671014       -0.5808946399
 H          0.9765847518        4.7259453470        0.9334156503
 C          1.1487288217        0.1534537597       -1.0919188221
 C          1.8050140409        0.1416750744       -2.2424709189
 H          2.1400360255        1.0557967521       -2.6960598599
 H          2.0320727401       -0.7799161585       -2.7438293463
 C          0.6878714067       -1.0850632585       -0.4062722157
 C          1.4320680304       -1.4697500361        0.8366504967
 O          0.5981555020       -2.0611433063        1.7047506618
 C         -0.0137397156       -2.1929656935       -1.1666206975
 C         -1.8825571714       -0.4634513149       -0.3503494355
 C         -2.5757920847       -0.4377072772       -1.4828129362
 C         -2.1495171347        0.4943697262        0.7799712807
 O          2.5860518789       -1.2541708178        1.0817265430
 C         -3.6757527346        0.5332889164       -1.7726392450
 C         -2.9127139349        1.7175213753        0.2835907715
 H         -1.1989650198        0.7999935610        1.2217813309
 H         -2.7313758012       -0.0129924616        1.5573566405
 C         -4.1304450420        1.2710322025       -0.5168599780
 H         -4.5170576105        0.0056860696       -2.2300356540
 H         -3.3100308583        1.2530494961       -2.5131106459
 H         -2.2559811111        2.3107512046       -0.3545844845
 H         -3.2178383471        2.3349822958        1.1305490187
 H         -4.7401112865        0.6049271576        0.0976742263
 H         -4.7446453619        2.1302949438       -0.7920348061
 C          0.1716808819       -3.6285605532       -0.7057688649
 C         -0.7707458947       -1.4115763009       -0.1345400817
 H         -0.1626287134       -2.0097184639       -2.2203064996
 C         -0.6800037409       -2.2980576575        1.1144869908
 C         -0.6952120401       -3.7253500580        0.5599573736
 H         -1.7194213918       -3.9966192298        0.3037197521
 H         -0.3072253963       -4.4367939842        1.2867474918
 H          1.2183832463       -3.8377521116       -0.4765032159
 H         -0.1543169819       -4.3311419840       -1.4713493739
 H         -1.4360860466       -2.1120373086        1.8774374518
 H         -2.3455061337       -1.1345283764       -2.2771374570
