  48
        -65.77507888
 Si         0.4241564111        3.2566891192       -0.6768529465
 C          0.2196239353        4.4549156979        0.7875163477
 H          0.5841642879        3.9975810638        1.7035620343
 H         -0.8227072952        4.7189492997        0.9443045168
 H          0.7723695103        5.3764287441        0.6375284968
 C          2.2622482891        2.7982908605       -0.8735532688
 H          2.6286797643        2.3135893128        0.0277239897
 H          2.8772173611        3.6759410783       -1.0437860464
 H          2.4234643542        2.1201791112       -1.7075455795
 C         -0.3245680199        3.9257600402       -2.2894218817
 O         -0.5058555398        1.9140734479       -0.4366537365
 H          0.1562781552        4.8558105867       -2.5710813103
 H         -1.3863956147        4.1217965944       -2.1832161295
 H         -0.2002938408        3.2290538382       -3.1122967066
 C         -0.4277669889        0.9875962948        0.5490541337
 C         -1.2258933093        1.0083405118        1.6068681294
 H         -1.9412120787        1.7981952967        1.7442354197
 H         -1.1758254132        0.2385730779        2.3535317444
 C          0.5908880021       -0.0784351476        0.3521560910
 C          1.6833614847       -0.1910920958        1.3695387752
 O          2.0520392553       -1.4745483310        1.5020551389
 C          0.8891189838       -0.5884422626       -1.0420590031
 C         -1.1440813723       -2.0160846826       -0.0600908565
 C         -1.6175667795       -2.7508529884        0.9422198731
 C         -1.9998756750       -1.5865812143       -1.2200540074
 O          2.1601235639        0.6978131183        2.0183212919
 C         -3.0298617306       -3.2360054969        1.0280655924
 C         -3.3044695846       -2.3749220867       -1.2879059240
 H         -1.4420773806       -1.7168947386       -2.1508544302
 H         -2.2148170754       -0.5183730991       -1.1125938040
 C         -3.9411370794       -2.4469129689        0.0940030280
 H         -3.3772075590       -3.1508012487        2.0604996058
 H         -3.0601257291       -4.2997533868        0.7670091969
 H         -3.1004224191       -3.3880961465       -1.6411016396
 H         -3.9837835263       -1.9007317624       -1.9983430373
 H         -4.0703828987       -1.4351767980        0.4829809989
 H         -4.9231666711       -2.9198322651        0.0394856268
 C          2.2931452595       -1.0687069097       -1.3652311215
 C          0.2424599721       -1.5073236568       -0.0473297904
 H          0.3185191180       -0.1207325083       -1.8309688385
 C          1.4277223671       -2.2989343279        0.5168148990
 C          2.3861489303       -2.4357095545       -0.6696087003
 H          2.0284331499       -3.2286301750       -1.3266629815
 H          3.3946605525       -2.6749810692       -0.3373431600
 H          3.0468473857       -0.3836265214       -0.9724206025
 H          2.4403054278       -1.1532973096       -2.4413042584
 H          1.1761675561       -3.2490793090        0.9879662469
 H         -0.9732473574       -3.0297901119        1.7648775273
