  48
        -65.77506719
 Si         3.0693128250        1.0810817833       -0.1752297779
 C          3.3660566547        1.1838177579       -2.0500862119
 H          4.2264407080        1.8084371168       -2.2629950352
 H          2.5156791100        1.6111123337       -2.5729010613
 H          3.5573010220        0.2046685757       -2.4775748327
 C          2.6719795792        2.8070912408        0.5362153047
 H          3.5619426229        3.4252702748        0.5955730622
 H          2.2505113346        2.7429212353        1.5354802618
 H          1.9528807245        3.3331655289       -0.0857778948
 C          4.5611069955        0.3094237149        0.7225464431
 O          1.7467223135        0.1027470756       -0.1349434220
 H          4.6338932866       -0.7531365178        0.5079713730
 H          4.4897701460        0.4165802286        1.8010370487
 H          5.4924745337        0.7722258912        0.4121477997
 C          1.0063243635       -0.4582881942        0.8487406693
 C          1.2129466065       -0.2690616034        2.1448042540
 H          2.0270890574        0.3370754701        2.4944594313
 H          0.5928265253       -0.7443711229        2.8792704795
 C         -0.1064059351       -1.3002512793        0.3364164865
 C         -0.5687011331       -2.4573930026        1.1718956505
 O         -1.8876720608       -2.6448154554        1.0016664100
 C         -0.3525103366       -1.3956692478       -1.1589321460
 C         -1.7287740706        0.7182173421       -0.2616256114
 C         -2.6093298678        1.1795910202        0.6222416797
 C         -1.0493180314        1.6142277450       -1.2611638153
 O          0.0866722302       -3.1244658969        1.9206696282
 C         -3.0552962831        2.6052965796        0.6989519899
 C         -1.2174210477        3.0872942700       -0.9020812327
 H         -1.4720394269        1.4190935158       -2.2526515606
 H          0.0129650696        1.3699823128       -1.3021393933
 C         -2.6728175235        3.3784618934       -0.5586311357
 H         -2.5935662912        3.0708961530        1.5763821269
 H         -4.1370919028        2.6390797762        0.8530950627
 H         -0.8872789016        3.7104722522       -1.7354594276
 H         -0.5946684470        3.3199061689       -0.0360883218
 H         -2.8240486334        4.4478330449       -0.4015995041
 H         -3.3095125451        3.0649351915       -1.3885736290
 C         -0.9189386178       -2.6844235845       -1.7282474803
 C         -1.3709022836       -0.7150509760       -0.2963699650
 H          0.3325884668       -0.8326893795       -1.7745011743
 C         -2.4024433841       -1.8212561883       -0.0426247677
 C         -2.4036924796       -2.6395203371       -1.3369150790
 H         -2.9867464871       -2.1127968611       -2.0925875044
 H         -2.8320014343       -3.6275817581       -1.1791251259
 H         -0.4292648337       -3.5581067200       -1.2937898133
 H         -0.7869157077       -2.7247606353       -2.8086700327
 H         -3.3918587174       -1.4770671147        0.2590015857
 H         -3.0447035369        0.5138494763        1.3550856572
