  48
        -65.77645386
 Si         2.9493296030       -0.8286092397       -0.2321465397
 C          3.7085425398       -2.5748846259       -0.1291220567
 H          3.7326049368       -2.9517099320        0.8894663332
 H          4.7283655912       -2.5851665293       -0.5005918428
 H          3.1358877403       -3.2826945525       -0.7221402510
 C          3.2927583279       -0.0265495845       -1.9198796713
 H          2.7499403976        0.9064003017       -2.0323577998
 H          3.0014744981       -0.6778790278       -2.7378798521
 H          4.3494473323        0.1887166052       -2.0335790924
 C          3.6148143934        0.2573969066        1.1886326837
 O          1.3083897435       -0.8616499904       -0.2476548704
 H          3.3888924762        1.3060548164        1.0171754548
 H          4.6924140845        0.1711271887        1.2841847617
 H          3.1776703990       -0.0177390241        2.1445461097
 C          0.3441123886       -1.3545689189        0.5645903492
 C          0.5798729733       -1.9869146557        1.7061541145
 H          1.5857051232       -2.1631062056        2.0386418723
 H         -0.2219982220       -2.3693971065        2.3059970738
 C         -1.0191577095       -1.0693132059        0.0462456856
 C         -2.2189430505       -1.6949341983        0.6916649719
 O         -3.2614025389       -0.8490863053        0.6259512586
 C         -1.1688264340       -0.6666833889       -1.4186162510
 C         -0.6714208332        1.5532105527       -0.0215831975
 C         -0.0134630204        2.2396992378       -0.9477001799
 C         -0.6574558651        1.9358652775        1.4333224326
 O         -2.2949881958       -2.7623627906        1.2308501593
 C          0.7945997597        3.4656347680       -0.6616714908
 C         -0.2255844071        3.3868766352        1.6175248406
 H          0.0362760169        1.2692251053        1.9569163438
 H         -1.6462876023        1.7732769133        1.8697564085
 C          1.0557023214        3.6395308106        0.8319255727
 H          0.2538938488        4.3367760408       -1.0486988952
 H          1.7411841846        3.4123017716       -1.2059859016
 H         -0.0707675228        3.5972119800        2.6771945849
 H         -1.0116565337        4.0512068914        1.2516988663
 H          1.4346295060        4.6439849415        1.0295916366
 H          1.8130211445        2.9227523109        1.1539368214
 C         -2.4497924384       -1.0262548758       -2.1493652013
 C         -1.4453698358        0.3389768273       -0.3500831826
 H         -0.2446077844       -0.6373990784       -1.9758647674
 C         -2.9696759626        0.2800014707       -0.1955039731
 C         -3.4759671183       -0.0168664929       -1.6100229852
 H         -3.4568237534        0.9020969834       -2.1961142220
 H         -4.4907800119       -0.4101611949       -1.5925557503
 H         -2.7591019788       -2.0499870171       -1.9296270545
 H         -2.3228441679       -0.9354753829       -3.2272954179
 H         -3.4283345281        1.1566858839        0.2637842826
 H         -0.0597659105        1.9310939658       -1.9831253946
