  48
        -65.77499958
 Si         3.0082205079        1.3057278894       -0.2106110789
 C          2.3947686418        3.0572783030        0.2370390783
 H          1.6741483604        3.4213792804       -0.4901925503
 H          3.2138535685        3.7685602730        0.2655929341
 H          1.9111474052        3.0755371388        1.2098749876
 C          4.4731363650        0.8060023668        0.8994227712
 H          5.4030281108        1.2400855211        0.5459464136
 H          4.5972528934       -0.2732284022        0.9124901522
 H          4.3369978339        1.1287270403        1.9276490635
 C          3.4629393391        1.2007245307       -2.0528022177
 O          1.7714388521        0.2216696996       -0.1461513338
 H          4.2705191364        1.8864797024       -2.2837231610
 H          2.6238724456        1.4567543193       -2.6925352998
 H          3.7910619108        0.2025218928       -2.3246446241
 C          1.0165558196       -0.3024337994        0.8458337777
 C          1.1305814580        0.0157130372        2.1280210402
 H          1.8759177352        0.7109262534        2.4648791616
 H          0.5008085818       -0.4395558462        2.8673355042
 C         -0.0023832423       -1.2706277799        0.3613027690
 C         -0.3411217430       -2.4401870943        1.2374375162
 O         -1.6333837618       -2.7703289601        1.0780092447
 C         -0.2400705167       -1.4349694849       -1.1281461622
 C         -1.8187157121        0.5533510689       -0.2801911881
 C         -2.7646652111        0.9428232377        0.5701226812
 C         -1.1933871112        1.4972711106       -1.2712314772
 O          0.3807909270       -3.0063411950        2.0076177405
 C         -3.3404109074        2.3226723670        0.6142248464
 C         -1.4997612043        2.9526665399       -0.9318731805
 H         -1.5711245057        1.2583309176       -2.2712349988
 H         -0.1129238034        1.3473462555       -1.2832503413
 C         -2.9852911329        3.1180663059       -0.6374226067
 H         -2.9542869373        2.8348580337        1.5021992746
 H         -4.4256309915        2.2592777613        0.7304517322
 H         -1.1991830831        3.5962313884       -1.7609434724
 H         -0.9270061343        3.2449484357       -0.0496578046
 H         -3.2337790963        4.1711728900       -0.4949647906
 H         -3.5649368901        2.7453055380       -1.4844872064
 C         -0.6710766057       -2.7915065270       -1.6569994164
 C         -1.3223963659       -0.8380799942       -0.2802331002
 H          0.3819785617       -0.8230876894       -1.7637472821
 C         -2.2325983529       -2.0374354748        0.0111537654
 C         -2.1511565546       -2.8899922893       -1.2581860705
 H         -2.7881949882       -2.4499844597       -2.0256671225
 H         -2.4734593499       -3.9121562465       -1.0687112332
 H         -0.0916528775       -3.5962966382       -1.2005157845
 H         -0.5388210292       -2.8494555911       -2.7365919095
 H         -3.2523442390       -1.7904053154        0.3066278590
 H         -3.1601407452        0.2498032125        1.3001268832
