  48
        -65.77503871
 Si         3.0294809695        1.2253612419       -0.1920714513
 C          3.4132606628        1.2150393003       -2.0535418300
 H          4.2387638031        1.8826378626       -2.2740352135
 H          2.5628504120        1.5411380761       -2.6446485877
 H          3.6915204437        0.2236219249       -2.3965709107
 C          2.4946920091        2.9671008780        0.3774044593
 H          3.3403231259        3.6455793800        0.4250510831
 H          2.0375137204        2.9437691591        1.3627923896
 H          1.7696735974        3.4002130404       -0.3063879210
 C          4.5152753027        0.6117253629        0.8294198445
 O          1.7608641439        0.1781330768       -0.1436404777
 H          4.4165775611        0.8552998855        1.8833634017
 H          5.4437172898        1.0535121651        0.4817900933
 H          4.6157104984       -0.4674784053        0.7548484260
 C          1.0189022852       -0.3738894389        0.8433286817
 C          1.1780829439       -0.1213802763        2.1352656522
 H          1.9524107929        0.5364344423        2.4818177485
 H          0.5578346190       -0.5947243633        2.8711026809
 C         -0.0394714385       -1.2886251237        0.3402553710
 C         -0.4256305963       -2.4639674889        1.1886423311
 O         -1.7305090666       -2.7364557585        1.0236903196
 C         -0.2837553587       -1.4102663224       -1.1528165998
 C         -1.7833160873        0.6207308967       -0.2620885280
 C         -2.6992331405        1.0307700648        0.6111018672
 C         -1.1433781808        1.5552991215       -1.2525082132
 O          0.2725742288       -3.0789460313        1.9431607433
 C         -3.2259190180        2.4288902450        0.6833779961
 C         -1.3972668679        3.0159992845       -0.8930736066
 H         -1.5436649240        1.3393767872       -2.2489774052
 H         -0.0686295596        1.3707144873       -1.2825396121
 C         -2.8707492774        3.2253225733       -0.5676191418
 H         -2.8030774459        2.9176906439        1.5677859044
 H         -4.3098759745        2.4013224886        0.8228773306
 H         -1.0922166195        3.6583502710       -1.7214529322
 H         -0.7990313086        3.2809901392       -0.0191807616
 H         -3.0827309147        4.2842835821       -0.4103098256
 H         -3.4786104580        2.8795027219       -1.4062944317
 C         -0.7698519685       -2.7360879802       -1.7109972866
 C         -1.3404259855       -0.7885239416       -0.2912217658
 H          0.3628858641       -0.8102703324       -1.7750205768
 C         -2.2992293761       -1.9556201110       -0.0255816438
 C         -2.2529224137       -2.7823192161       -1.3136770096
 H         -2.8709843130       -2.2994294568       -2.0708148655
 H         -2.6171601369       -3.7942867732       -1.1467955763
 H         -0.2242015978       -3.5739112259       -1.2726602988
 H         -0.6396446349       -2.7756291270       -2.7916758495
 H         -3.3077046943       -1.6727835860        0.2765642904
 H         -3.1050386474        0.3412036834        1.3387840569
