  48
        -65.77498566
 Si        -0.8320823767        2.4443408559        0.7441264439
 C         -2.6237757569        3.0293759719        0.4973503379
 H         -2.9860756281        3.5353907286        1.3853573432
 H         -3.2915646455        2.1978758597        0.2958484366
 H         -2.7039901784        3.7226032885       -0.3331830523
 C         -0.7772168400        1.1585114689        2.1525250912
 H         -1.2486068687        1.5463189835        3.0502672612
 H          0.2404136124        0.8875894719        2.4169825551
 H         -1.3043334123        0.2504961459        1.8728429286
 C          0.3686144250        3.8748078243        1.0983207613
 O         -0.5422406144        1.7901466119       -0.7346259082
 H          0.2761508427        4.6600874017        0.3530939822
 H          1.3966793363        3.5235453468        1.0756594015
 H          0.1912404152        4.3215426325        2.0713037365
 C          0.4777343753        1.1972805021       -1.3843663531
 C          0.8210209024        1.5787947837       -2.6090024146
 H          0.3152219322        2.3948756283       -3.0911545789
 H          1.6187720052        1.0976615120       -3.1418357133
 C          1.1912907980        0.0988224207       -0.6741738983
 C          2.1224602509        0.5354327838        0.4157707782
 O          2.2113212615       -0.4184605251        1.3535281615
 C          1.5405514864       -1.1898587348       -1.3861543322
 C         -0.8243465940       -1.6178375330       -0.2566196876
 C         -1.6497783972       -1.1255377905       -1.1759783913
 C         -1.2827412509       -2.6277855973        0.7652936649
 O          2.6849991184        1.5901661658        0.5061533875
 C         -3.1054713177       -1.4543705012       -1.2680020405
 C         -2.6287200553       -3.2408959076        0.3878318730
 H         -1.3666921300       -2.1430857788        1.7436637740
 H         -0.5348617836       -3.4200386178        0.8559127321
 C         -3.6072149311       -2.1410477585       -0.0027716202
 H         -3.2678454933       -2.1051779125       -2.1344337882
 H         -3.6654832030       -0.5341770635       -1.4511560894
 H         -3.0153054073       -3.8209814944        1.2278055075
 H         -2.4953539965       -3.9185837469       -0.4579102609
 H         -4.6033977771       -2.5548790896       -0.1679444468
 H         -3.6734178627       -1.4119531325        0.8072805426
 C          2.8407799624       -1.8976829973       -1.0491323352
 C          0.6008977747       -1.2230964588       -0.2057840048
 H          1.1453212760       -1.2948115030       -2.3862135418
 C          1.5330497567       -1.6076947602        0.9506302083
 C          2.5642012352       -2.5462855195        0.3164580030
 H          2.1227903387       -3.5351133102        0.1898434915
 H          3.4557268575       -2.6302623068        0.9352800786
 H          3.6694597625       -1.1901418709       -0.9805982766
 H          3.0900161497       -2.6403078077       -1.8055614230
 H          1.0515077076       -2.0148844672        1.8388780438
 H         -1.2855243344       -0.4284908229       -1.9158568923
