  48
        -65.77498604
 Si        -0.9839905374        2.4680376846        0.3977287712
 C          0.1158443733        3.9692856625        0.7850277202
 H          1.1429837870        3.6553798174        0.9503922313
 H         -0.2171240237        4.4982351725        1.6721804724
 H          0.1200428794        4.6773928810       -0.0390854476
 C         -2.7340526059        2.9568508455       -0.1604850524
 H         -3.3412337817        2.0846298210       -0.3807455112
 H         -2.7086390405        3.5722224604       -1.0534755251
 H         -3.2383876234        3.5222169212        0.6153209597
 C         -1.1053975001        1.3178147037        1.9149698359
 O         -0.4611114897        1.6962654880       -0.9549939545
 H         -1.7135306332        1.7668724907        2.6941239258
 H         -0.1315399116        1.1113098342        2.3483701186
 H         -1.5628117532        0.3685361673        1.6499955938
 C          0.6621408032        1.0928274717       -1.3891411448
 C          1.1840905691        1.3901337882       -2.5732398794
 H          0.7412219936        2.1475154408       -3.1933430511
 H          2.0665271057        0.8978814801       -2.9349555559
 C          1.2805916148        0.0793235809       -0.4889733414
 C          2.0219289310        0.6320115416        0.6901249097
 O          1.9837512834       -0.2408897333        1.7068872921
 C          1.7610755386       -1.2503143686       -1.0280737034
 C         -0.7426029095       -1.6594927558       -0.2429613572
 C         -1.4185222912       -1.2763060746       -1.3224482847
 C         -1.3430591644       -2.5852112481        0.7849886043
 O          2.5413784782        1.7089347639        0.7770064924
 C         -2.8367109559       -1.6529044816       -1.6096168145
 C         -2.6057173072       -3.2656820758        0.2626852738
 H         -1.5849380573       -2.0167836678        1.6891950377
 H         -0.6090157377       -3.3460014094        1.0636110366
 C         -3.5234012629       -2.2329233383       -0.3783671458
 H         -2.8513209357       -2.3856639338       -2.4241621975
 H         -3.3724506137       -0.7696605340       -1.9656480435
 H         -3.1128636874       -3.7759532345        1.0836205666
 H         -2.3330337873       -4.0146811669       -0.4836280629
 H         -4.4762291861       -2.6865557858       -0.6563396156
 H         -3.7247022428       -1.4340852435        0.3381941075
 C          3.0065083968       -1.8868837952       -0.4373742198
 C          0.6503157865       -1.2191794024       -0.0070408210
 H          1.5284707702       -1.4476194386       -2.0645528686
 C          1.3988225168       -1.4796661478        1.3066784959
 C          2.5333603802       -2.4329990775        0.9190392684
 H          2.1353945566       -3.4420764710        0.8092835450
 H          3.3193178293       -2.4394274914        1.6720557424
 H          3.8005690687       -1.1499093703       -0.3018976079
 H          3.3847543222       -2.6790726909       -1.0816947862
 H          0.7932849577       -1.8291252406        2.1420553621
 H         -0.9511883877       -0.6389487493       -2.0582693573
