  48
        -65.77495559
 Si         1.2477899354        2.7928147994        0.4719144963
 C          0.9131417965        2.5778922048        2.3318823663
 H          1.4171009201        1.6948929265        2.7137034808
 H         -0.1475344141        2.4692083366        2.5400546079
 H          1.2720186573        3.4322531947        2.8957966956
 C          3.1063085158        2.8008906782        0.0830277616
 H          3.5406488896        1.8439358087        0.3582002520
 H          3.6322912218        3.5765098094        0.6296966497
 H          3.2966123345        2.9563708482       -0.9752916333
 C          0.3750598619        4.3503994786       -0.1990359246
 O          0.4905448087        1.5041048916       -0.2282401694
 H          0.7117978640        5.2391062480        0.3237202742
 H         -0.7015240285        4.2846493655       -0.0720587236
 H          0.5691958653        4.4995235223       -1.2572442299
 C          0.8993608705        0.5356306754       -1.0758942991
 C          1.3065304464        0.7717027499       -2.3142876805
 H          1.3439067668        1.7747691372       -2.6971029252
 H          1.6216146747       -0.0229786429       -2.9629603019
 C          0.8443048324       -0.8196501962       -0.4633014180
 C          1.7164479653       -1.0150181533        0.7421184724
 O          1.1368184201       -1.8724499886        1.5953890635
 C          0.4612641007       -2.0473853124       -1.2651874300
 C         -1.7942465062       -0.9991593944       -0.2894914412
 C         -2.5812429210       -1.2803165310       -1.3215635497
 C         -2.1927090569       -0.0404638310        0.7989593434
 O          2.7574948253       -0.4678712037        0.9757773912
 C         -3.9393556860       -0.6851198208       -1.5195475814
 C         -3.6940362067        0.2266429098        0.7869496630
 H         -1.6435036736        0.8931516204        0.6443527950
 H         -1.8846948600       -0.4335851492        1.7711743306
 C         -4.1455434257        0.5405017393       -0.6344722454
 H         -4.6947786549       -1.4441924629       -1.2872589018
 H         -4.0681966510       -0.4193200984       -2.5718872606
 H         -3.9273017283        1.0581417755        1.4542368901
 H         -4.2277901877       -0.6558473577        1.1474246408
 H         -5.1957201166        0.8378243597       -0.6470737483
 H         -3.5519567817        1.3709437070       -1.0214105121
 C          1.0875728670       -3.3820231234       -0.8994170586
 C         -0.4395643928       -1.5762616807       -0.1643387080
 H          0.2049342628       -1.8674614572       -2.2985583387
 C         -0.0336164351       -2.4563121972        1.0252829314
 C          0.3538905129       -3.7934564970        0.3870322847
 H         -0.5531616448       -4.3497377830        0.1502399453
 H          0.9728746308       -4.3868712136        1.0576085079
 H          2.1594524550       -3.2789420330       -0.7197587681
 H          0.9463281514       -4.1130519785       -1.6942562673
 H         -0.7792475935       -2.5481959896        1.8158721047
 H         -2.2564034541       -1.9848228376       -2.0753236425
