  48
        -65.77483358
 Si         3.0096856730       -0.2499646590       -0.2588015522
 C          3.4651412648        0.8169129125       -1.7775490333
 H          2.7120790684        1.5793124346       -1.9595816146
 H          3.5509247849        0.2251021664       -2.6844323631
 H          4.4147861203        1.3221167559       -1.6333025143
 C          3.3743964803        0.6986037299        1.3469593677
 H          4.4446209223        0.7563431817        1.5138444029
 H          2.9338586084        0.2048839393        2.2073804205
 H          2.9962360889        1.7159739383        1.3173458017
 C          3.9122824913       -1.9249807729       -0.3069991968
 O          1.3790070804       -0.4577108957       -0.1489996836
 H          3.5254504660       -2.5850771662        0.4643843006
 H          4.9791834583       -1.8127451058       -0.1429750021
 H          3.7790296594       -2.4312853796       -1.2588603741
 C          0.4616777066       -1.0741983959       -0.9208001883
 C          0.6844708957       -1.5589136367       -2.1335608337
 H          1.6527215164       -1.4934080960       -2.5918981549
 H         -0.0955544214       -2.0501918327       -2.6831497621
 C         -0.8655766426       -1.1663711498       -0.2504969483
 C         -0.9697100641       -2.1150399258        0.9084988740
 O         -1.8514392488       -1.6415393595        1.8044247255
 C         -2.1333408959       -0.8319487135       -1.0089349024
 C         -1.1840538368        1.4273893841        0.0627385445
 C         -1.3131884229        2.1728208060       -1.0292899903
 C         -0.4095525058        1.8854547513        1.2686819419
 O         -0.3479974255       -3.1248310720        1.0749876500
 C         -0.7049515913        3.5306290495       -1.1880411246
 C         -0.1211663722        3.3824505077        1.2248147303
 H          0.5280687686        1.3237422127        1.2949663429
 H         -0.9568984226        1.6397269714        2.1818154859
 C          0.3935840721        3.7669651666       -0.1564718811
 H         -1.4878297475        4.2894392167       -1.0791107423
 H         -0.3041927646        3.6294393183       -2.2002703053
 H          0.6118287373        3.6383531460        1.9920826730
 H         -1.0367647079        3.9403282179        1.4345268743
 H          0.7058432043        4.8128128038       -0.1736219470
 H          1.2593736898        3.1473786462       -0.3992914237
 C         -3.4140544071       -1.5673346088       -0.6555495112
 C         -1.7032107399        0.0453179224        0.1297255764
 H         -1.9910174213       -0.5208171392       -2.0331241994
 C         -2.5277416768       -0.4866565806        1.3089098277
 C         -3.8482231784       -0.9335385857        0.6748252629
 H         -4.4719453338       -0.0572746643        0.4972994809
 H         -4.3816473406       -1.6275166961        1.3218873538
 H         -3.2331852195       -2.6372266623       -0.5356348722
 H         -4.1684913500       -1.4355924197       -1.4298973945
 H         -2.6594602047        0.2028204298        2.1431811904
 H         -1.8848545109        1.8094950435       -1.8721181573
