  48
        -65.77478527
 Si         2.9174796165        1.5516683782       -0.2534343183
 C          2.0830553574        3.2656284082       -0.1420357553
 H          1.3996980500        3.4288299877       -0.9709827016
 H          2.8162923502        4.0652485724       -0.1644295527
 H          1.5105723652        3.3718622721        0.7754914678
 C          4.2810496219        1.3902241980        1.0672011345
 H          4.4456029459        0.3481077259        1.3265048989
 H          4.0295621653        1.9175256526        1.9831299701
 H          5.2241906322        1.7942268436        0.7130776208
 C          3.5969105094        1.2370397609       -1.9993852808
 O          1.7856811498        0.3607343216       -0.1505355852
 H          4.3444327901        1.9795941171       -2.2556692949
 H          2.8162628725        1.2847100503       -2.7522839701
 H          4.0641495969        0.2601512257       -2.0723011303
 C          1.0045950237       -0.1243783496        0.8400398174
 C          0.9936517011        0.3289361838        2.0860537792
 H          1.6490671117        1.1195020064        2.3983604154
 H          0.3476891509       -0.1068312074        2.8235381229
 C          0.1068219010       -1.2251512210        0.3995711974
 C         -0.0992933235       -2.3818980660        1.3318648279
 O         -1.3442887094       -2.8661872374        1.1890721319
 C         -0.1064141109       -1.4806997651       -1.0795231146
 C         -1.8964024930        0.3536437295       -0.3093031332
 C         -2.9006119070        0.6646555746        0.5057615696
 C         -1.3433322840        1.3332778799       -1.3087567808
 O          0.6789132475       -2.8202191348        2.1298983540
 C         -3.6140289176        1.9793399587        0.4994434732
 C         -1.8001644917        2.7580142052       -1.0111725987
 H         -1.6713484779        1.0368705842       -2.3109005516
 H         -0.2533433742        1.2913156976       -1.2937729628
 C         -3.3024551953        2.7814527200       -0.7594519801
 H         -3.3094127009        2.5458968964        1.3861372669
 H         -4.6904194744        1.8084876188        0.5857867823
 H         -1.5417110464        3.4110138252       -1.8469683899
 H         -1.2827870964        3.1237266862       -0.1222121774
 H         -3.6570944353        3.8074226533       -0.6468712953
 H         -3.8182108920        2.3371180744       -1.6132746934
 C         -0.3787376868       -2.8992199047       -1.5475375265
 C         -1.2524699738       -0.9744512857       -0.2553964883
 H          0.4435109563       -0.8307640459       -1.7433289154
 C         -2.0200980141       -2.2559125563        0.0909659466
 C         -1.8382285349       -3.1492186969       -1.1393143653
 H         -2.5204218325       -2.8201361083       -1.9234088000
 H         -2.0411439275       -4.1921817023       -0.9034270325
 H          0.2886476757       -3.6115170398       -1.0587148156
 H         -0.2394003454       -2.9886044909       -2.6240883947
 H         -3.0624558487       -2.1154663859        0.3770504339
 H         -3.2440187987       -0.0464768267        1.2445173791
