  48
        -65.77469614
 Si         2.9081492800       -0.2638131525        0.7065199650
 C          3.6136832142       -1.8472356482        1.4927317115
 H          4.5886214456       -1.6784276412        1.9385517546
 H          3.7199245192       -2.6454742435        0.7633380027
 H          2.9510224090       -2.2123842108        2.2723265979
 C          3.9645765489        0.2561485695       -0.8001835047
 H          4.8587193957        0.7859714152       -0.4872626323
 H          3.4105821212        0.9147023801       -1.4640597750
 H          4.2887309120       -0.5983087985       -1.3878185734
 C          2.7722472765        1.1644406968        1.9501752470
 O          1.3265244356       -0.4648619428        0.3045660089
 H          2.4422147067        2.0819950684        1.4735992704
 H          3.7322264048        1.3620695666        2.4145945119
 H          2.0632649438        0.9314430160        2.7377685997
 C          0.6500695323       -1.2843282497       -0.5217130655
 C          1.1904037615       -2.0668541674       -1.4451174855
 H          2.2535307420       -2.1114727545       -1.5870960765
 H          0.5753156188       -2.6948992858       -2.0611152205
 C         -0.8191813008       -1.2230583317       -0.2823023442
 C         -1.3304924837       -1.9752860499        0.9125240901
 O         -2.3842759986       -1.3310012692        1.4378797176
 C         -1.7864846025       -0.9560989397       -1.4140148871
 C         -0.9984175694        1.4058005249       -0.4479634231
 C         -1.0374011561        2.2898229038        0.5446798016
 C         -0.2909391291        1.6967062727       -1.7447639861
 O         -0.8711009871       -2.9741534603        1.3872523475
 C         -0.4344536422        3.6574263881        0.4826804294
 C          0.6616982320        2.8797516031       -1.6071999157
 H         -1.0380973891        1.9066059767       -2.5180091804
 H          0.2702094517        0.8135881884       -2.0586693666
 C         -0.0560199986        4.0468815134       -0.9420943618
 H          0.4552080146        3.6730335752        1.1214743377
 H         -1.1377416765        4.3826400876        0.9013594337
 H          1.0368651604        3.1689724909       -2.5909522534
 H          1.5119024044        2.5821949127       -0.9903740786
 H          0.5799352666        4.9338935347       -0.9317426374
 H         -0.9584701815        4.2853626584       -1.5091445090
 C         -3.1738842755       -1.5703878951       -1.3511020142
 C         -1.6190918016        0.0713705957       -0.3272461529
 H         -1.3443459470       -0.8160233628       -2.3893974180
 C         -2.7878958537       -0.2360740689        0.6169276521
 C         -3.9095533515       -0.7154232896       -0.3086974711
 H         -4.3764532788        0.1496885739       -0.7798039900
 H         -4.6644340708       -1.2735628897        0.2420365681
 H         -3.1281236703       -2.6140479716       -1.0340265211
 H         -3.6635745418       -1.5323707638       -2.3232259730
 H         -3.0902809600        0.5773676075        1.2755757279
 H         -1.5093893828        2.0397558801        1.4842450430
