  48
        -65.77468287
 Si         2.8813008943        0.6568396620        0.4920899415
 C          2.4224480109        1.5512333704        2.1036453239
 H          3.3073846387        1.9354042942        2.5992582481
 H          1.9204276508        0.8810986009        2.7941104916
 H          1.7574152992        2.3883981008        1.9160102654
 C          3.8622845571       -0.9489700636        0.7663482952
 H          4.6221489526       -0.8401078267        1.5333029111
 H          4.3600474124       -1.2756957062       -0.1426049353
 H          3.1911347075       -1.7484594936        1.0701480734
 C          3.8226592498        1.8400804006       -0.6763111378
 O          1.3847929891        0.3106548379       -0.1009274814
 H          4.6910969179        2.2651013093       -0.1835467788
 H          3.1913866535        2.6659786998       -0.9930248448
 H          4.1753480948        1.3368272198       -1.5724415936
 C          0.9260499769       -0.5730365335       -1.0091632580
 C          1.4857225776       -0.8097748607       -2.1866486763
 H          2.3858721690       -0.3047502923       -2.4832966944
 H          1.0639817632       -1.5249445872       -2.8669425009
 C         -0.3027008936       -1.2663752193       -0.5333964895
 C         -0.1030751256       -2.2626898705        0.5695507068
 O         -1.1737587615       -2.2716834400        1.3781940385
 C         -1.5298420037       -1.3916150229       -1.4091071550
 C         -1.6510336681        0.9494728046       -0.1166015017
 C         -1.5740255646        1.5842050143        1.0490956367
 C         -1.7063769369        1.6776922578       -1.4316707049
 O          0.8736193777       -2.9277563712        0.7717988878
 C         -1.5412981118        3.0729201961        1.1878246204
 C         -2.0219199483        3.1592427428       -1.2482012232
 H         -2.4608709056        1.2146643910       -2.0734337732
 H         -0.7370726563        1.5639374497       -1.9287246852
 C         -1.1613129270        3.7364059925       -0.1314252460
 H         -0.8288558280        3.3444237482        1.9703569019
 H         -2.5258406041        3.4272532721        1.5138149922
 H         -3.0757656892        3.2787217535       -0.9870303061
 H         -1.8446452616        3.6917250591       -2.1845028206
 H         -0.1103697513        3.5336784822       -0.3467784536
 H         -1.2955519129        4.8174781161       -0.0628149418
 C         -2.4261992974       -2.6055793315       -1.2372328912
 C         -1.5872484971       -0.5247606719       -0.1848888508
 H         -1.4429194225       -0.9611897368       -2.3958803841
 C         -2.2184484342       -1.4446239081        0.8661177538
 C         -3.1855664032       -2.3240440155        0.0685553674
 H         -4.0975292670       -1.7608285472       -0.1300894912
 H         -3.4378975456       -3.2301875206        0.6162192185
 H         -1.8369379540       -3.5207566397       -1.1539548754
 H         -3.1044370742       -2.7151638777       -2.0824553474
 H         -2.6858875659       -0.9376618756        1.7104236490
 H         -1.5152208831        1.0234621749        1.9714201244
