  48
        -65.77466094
 Si         2.7278049699        1.1667979678        0.5265563517
 C          3.9486648471       -0.2193287732        0.9774405698
 H          4.6676208796        0.0943651443        1.7271558338
 H          4.5079621525       -0.5601471998        0.1103927262
 H          3.4076886121       -1.0770073214        1.3694381549
 C          3.5006367835        2.3790785793       -0.7319041386
 H          4.2794608598        2.9768718684       -0.2697744709
 H          2.7551968209        3.0641894919       -1.1265192736
 H          3.9488381414        1.8630517618       -1.5765661144
 C          2.0685446447        2.1123923417        2.0360478170
 O          1.3337104821        0.5228707254       -0.0684941842
 H          2.8558759832        2.6925315846        2.5049299558
 H          1.6708055155        1.4306666255        2.7810395894
 H          1.2727900411        2.7963443503        1.7579948388
 C          1.0632711479       -0.5266324372       -0.8692599686
 C          1.7053993711       -0.8067218319       -1.9940695997
 H          2.5242036476       -0.1984173785       -2.3300560421
 H          1.4359926755       -1.6582615383       -2.5894656758
 C         -0.0594500374       -1.3468586273       -0.3375855281
 C          0.2301023527       -2.1047957683        0.9238930150
 O         -0.8745663889       -2.1716023880        1.6823932527
 C         -1.1867270600       -1.8256945408       -1.2250834473
 C         -1.7866469111        0.6323698776       -0.3545805831
 C         -1.8806814227        1.4532147630        0.6870399849
 C         -1.8952683361        1.1136808244       -1.7756194838
 O          1.2878704645       -2.5502295278        1.2701720170
 C         -2.1102212057        2.9264387285        0.5705493590
 C         -2.4750270137        2.5228271783       -1.8543918881
 H         -2.5201335377        0.4228047115       -2.3480448992
 H         -0.8948567810        1.0988493066       -2.2212806879
 C         -1.7872763804        3.4220449329       -0.8348816255
 H         -1.4931211890        3.4448390944        1.3081772232
 H         -3.1554141987        3.1490734776        0.8137106225
 H         -3.5453988738        2.4898333826       -1.6393677059
 H         -2.3463326777        2.9177318250       -2.8638877691
 H         -0.7075913149        3.3820112897       -0.9913865121
 H         -2.1131060639        4.4569528265       -0.9541236215
 C         -1.8746254421       -3.1360749651       -0.8832139629
 C         -1.4710510873       -0.7985830381       -0.1680869760
 H         -1.1101398901       -1.5498386965       -2.2664264909
 C         -2.0069851859       -1.6347108909        0.9990993890
 C         -2.7569292809       -2.7875120481        0.3256339117
 H         -3.7348888852       -2.4334480982       -0.0008386212
 H         -2.8901072740       -3.6243463657        1.0087682423
 H         -1.1461832504       -3.9062739512       -0.6226639687
 H         -2.4661279096       -3.4994212776       -1.7225592600
 H         -2.6077316579       -1.0892912655        1.7271326043
 H         -1.7769583678        1.0700988347        1.6925934097
