  48
        -65.77461610
 Si         1.8983601704       -2.8329870886       -0.2205487552
 C          0.2568155978       -3.7066043699       -0.6409746546
 H         -0.4758858384       -3.5406769557        0.1434792841
 H          0.3952483606       -4.7791702614       -0.7313782615
 H         -0.1639292846       -3.3514149303       -1.5779919235
 C          3.2268193471       -3.2291789244       -1.5199953003
 H          2.9217457557       -2.9169014430       -2.5134758503
 H          3.4171015260       -4.2960849422       -1.5540312206
 H          4.1649330365       -2.7331171880       -1.2945345081
 C          2.4168556694       -3.2702904164        1.5553070099
 O          1.7858511956       -1.1946338188       -0.3893587017
 H          1.6356594871       -2.9734877263        2.2501759264
 H          3.3284074644       -2.7537035245        1.8434396293
 H          2.5862645668       -4.3344216766        1.6823007875
 C          1.1471088064       -0.2748909386        0.3673306555
 C          1.8084072765        0.5838811512        1.1300042601
 H          2.8800720509        0.5479037769        1.1971518896
 H          1.2955084921        1.3331382153        1.7019014997
 C         -0.3391591078       -0.2760893501        0.2703584891
 C         -1.1037581570       -0.8790954670        1.4060876474
 O         -2.2875857101       -0.2611591042        1.5355076621
 C         -0.9967291737       -0.3055660678       -1.0946136881
 C         -0.6272227746        2.2618498549       -0.4202123876
 C          0.1013171829        2.5841861526       -1.4836665209
 C         -0.9059241036        3.2511125651        0.6822956875
 O         -0.7364191555       -1.7495627730        2.1452114242
 C          0.7267994084        3.9243590324       -1.7040579426
 C          0.1086630819        4.3901542894        0.6639286849
 H         -0.8843097119        2.7394292678        1.6476813025
 H         -1.9124849136        3.6632598898        0.5528471219
 C          0.1866106060        4.9763573290       -0.7403073721
 H          0.5629078606        4.2373968406       -2.7384991563
 H          1.8090612051        3.8194545525       -1.5709059359
 H          1.0904485044        4.0081427520        0.9498659260
 H         -0.1819227357        5.1572847491        1.3839062517
 H         -0.8124219271        5.2840896165       -1.0560696197
 H          0.8296229543        5.8579792359       -0.7521993989
 C         -2.3249052056       -1.0215564217       -1.2671030822
 C         -1.1676817888        0.9023639612       -0.2187184016
 H         -0.3133851261       -0.3013827413       -1.9308413415
 C         -2.5212481935        0.6474034337        0.4572025695
 C         -3.3436832940       -0.0768033056       -0.6116591332
 H         -3.7115292783        0.6533984452       -1.3326949322
 H         -4.1891954138       -0.6027820128       -0.1719313553
 H         -2.3213325071       -1.9919102040       -0.7677256592
 H         -2.5463419408       -1.1841858426       -2.3210943112
 H         -3.0170728894        1.5249895422        0.8712744694
 H          0.3011517513        1.8491523505       -2.2499608570
