  48
        -65.77450573
 Si         2.8604276839        0.9541729011       -0.0479361481
 C          2.6495813338        1.7463254585        1.6653321582
 H          1.8524204451        2.4830939375        1.6662458488
 H          3.5612799433        2.2439747505        1.9774269533
 H          2.4062015387        0.9997193200        2.4144277679
 C          4.0613273049       -0.5205871167       -0.0549089557
 H          3.5705095249       -1.4008218552        0.3528334898
 H          4.9506908133       -0.3292497231        0.5365272909
 H          4.3858841783       -0.7708049337       -1.0611990857
 C          3.3808102588        2.2714227424       -1.3305660351
 O          1.3255677565        0.4314014281       -0.3336924854
 H          2.5963025006        3.0090443613       -1.4770274117
 H          3.6020755907        1.8347456689       -2.3006108094
 H          4.2701903242        2.8019963767       -1.0063490171
 C          0.7969347475       -0.4834258300       -1.1693291317
 C          1.1638498364       -0.6660499771       -2.4296387786
 H          1.9509753850       -0.0815985780       -2.8677867649
 H          0.6950554614       -1.4147343173       -3.0395887625
 C         -0.2610954357       -1.2909580516       -0.5019668239
 C          0.2293645353       -2.2838171738        0.5102515580
 O         -0.6658986161       -2.4080773971        1.5013058549
 C         -1.6127397335       -1.5196027277       -1.1387121078
 C         -1.7147954172        0.7796445655        0.2233072045
 C         -1.7025744782        1.3924779831        1.4034624554
 C         -1.8759201171        1.5388132333       -1.0664877279
 O          1.2820834710       -2.8570611671        0.5042368306
 C         -1.8793940792        2.8658298167        1.5918415738
 C         -1.6061642405        3.0273487933       -0.8727932028
 H         -2.8931907372        1.3881534501       -1.4440787618
 H         -1.1833882705        1.1403877171       -1.8111813275
 C         -2.3918670501        3.5433446350        0.3256447907
 H         -0.9127071525        3.2950950962        1.8767950623
 H         -2.5648601087        3.0460529243        2.4246222217
 H         -1.8807547555        3.5736995447       -1.7771457586
 H         -0.5390939726        3.1743820388       -0.6951527911
 H         -2.2914833211        4.6265954754        0.4139367955
 H         -3.4505839800        3.3126821710        0.1886582879
 C         -2.3470940339       -2.8159324822       -0.8446032265
 C         -1.5177749131       -0.6787793907        0.1048766581
 H         -1.7600471982       -1.0690265568       -2.1090805136
 C         -1.8576073076       -1.6744625096        1.2203378264
 C         -2.8744484943       -2.6268867635        0.5854609202
 H         -3.8530286985       -2.1467303225        0.5747927634
 H         -2.9407096301       -3.5607782486        1.1406153490
 H         -1.6711308271       -3.6715037504       -0.8987697510
 H         -3.1564388095       -2.9777838982       -1.5552528215
 H         -2.2035826005       -1.2353191946        2.1555468114
 H         -1.5337152831        0.8311759115        2.3116314569
