  48
        -65.77449466
 Si         2.7083949477        1.2109524133        0.5858006271
 C          3.9603784558       -0.1206337575        1.1113727116
 H          4.5509068648       -0.4730421294        0.2701653119
 H          3.4366852885       -0.9811280217        1.5202447911
 H          4.6510444475        0.2405454999        1.8662801798
 C          3.4701121400        2.4023906980       -0.6991841098
 H          2.7119286237        3.0474308182       -1.1349870881
 H          3.9534857397        1.8718666117       -1.5149153282
 H          4.2186520035        3.0420662746       -0.2430836677
 C          1.9901382974        2.1856681208        2.0489783147
 O          1.3465003561        0.5029255209       -0.0092750902
 H          2.7507664597        2.8021335234        2.5155360355
 H          1.5941282033        1.5173701133        2.8067790659
 H          1.1821456951        2.8380400146        1.7331055524
 C          1.1218580098       -0.5626943845       -0.8018227547
 C          1.8349986005       -0.8793503877       -1.8731241464
 H          2.6800127963       -0.2874620463       -2.1709830815
 H          1.5962185247       -1.7450661221       -2.4612499996
 C         -0.0365150194       -1.3665469531       -0.3237766199
 C          0.1949749700       -2.1381499468        0.9420650761
 O         -0.9403673111       -2.2031729062        1.6532212015
 C         -1.1306722551       -1.8282533854       -1.2586481136
 C         -1.7525709571        0.6274696469       -0.4015911023
 C         -2.1148371137        1.4103266873        0.6105209937
 C         -1.5784038374        1.1613350523       -1.7982356283
 O          1.2348552250       -2.5934919415        1.3268770374
 C         -2.4212476431        2.8688409357        0.4823738320
 C         -1.4598383397        2.6818170667       -1.8013094530
 H         -2.4341212973        0.8508797188       -2.4076632606
 H         -0.6798482088        0.7282269955       -2.2430794172
 C         -2.5851203300        3.2894145609       -0.9740091265
 H         -1.6032452383        3.4343940816        0.9416587129
 H         -3.3263527034        3.1013185508        1.0503294062
 H         -1.4922985277        3.0533720182       -2.8272636157
 H         -0.4992958612        2.9637381286       -1.3658472578
 H         -2.5759661506        4.3779853743       -1.0525664167
 H         -3.5447406629        2.9318122398       -1.3535274948
 C         -1.8441241062       -3.1344473700       -0.9567217637
 C         -1.4478057316       -0.8035753899       -0.2042015257
 H         -1.0165106251       -1.5475780326       -2.2952056443
 C         -2.0391371237       -1.6484610174        0.9304623242
 C         -2.7728735869       -2.7866085081        0.2160700982
 H         -3.7319131241       -2.4181140651       -0.1482604131
 H         -2.9442487499       -3.6273536626        0.8857584336
 H         -1.1341940149       -3.9132310800       -0.6715146956
 H         -2.4024002131       -3.4855226825       -1.8235187411
 H         -2.6652700135       -1.1109916436        1.6419949550
 H         -2.1827124686        1.0139321101        1.6138100202
