  48
        -65.77446621
 Si         0.4493607834        3.3162880246       -0.5330102081
 C          0.1615590949        4.4105026640        0.9975540259
 H          0.7307836531        5.3329313803        0.9503268499
 H          0.4628804715        3.8834010018        1.8990132465
 H         -0.8863038101        4.6763935529        1.1070035522
 C          2.2979622085        2.8725837363       -0.6568505559
 H          2.9166481806        3.7591972250       -0.7494734454
 H          2.5052003873        2.2389875344       -1.5153158178
 H          2.6198945155        2.3429024207        0.2359592716
 C         -0.2053291829        4.0976330718       -2.1356119566
 O         -0.4870584025        1.9606596814       -0.4390202826
 H          0.2897087958        5.0437684636       -2.3235316780
 H         -1.2718448851        4.2880392034       -2.0780573099
 H         -0.0319454321        3.4592150616       -2.9959540456
 C         -0.4877775596        0.9909742643        0.5059872722
 C         -1.3606254486        0.9766676275        1.5027863569
 H         -2.0801450075        1.7661122559        1.6173768371
 H         -1.3675550409        0.1839427442        2.2266112952
 C          0.5457888753       -0.0669118778        0.3394587116
 C          1.5697097508       -0.2113394188        1.4216220732
 O          1.9480458677       -1.4950690051        1.5215974726
 C          0.9473031830       -0.5079606108       -1.0531953667
 C         -1.1214749901       -2.0189135345       -0.2688302325
 C         -1.8928204110       -1.7701917877       -1.3214728769
 C         -1.6136144791       -2.8197068788        0.9088216711
 O          1.9867318521        0.6520213006        2.1421129395
 C         -3.3102165858       -2.2273491137       -1.4550106745
 C         -3.1379322337       -2.8296449514        0.9584554045
 H         -1.2058606312       -2.4002740693        1.8314826388
 H         -1.2475057329       -3.8487556629        0.8267973617
 C         -3.6846673593       -3.2610633824       -0.3970076947
 H         -3.4695689688       -2.6348230726       -2.4568599149
 H         -3.9585255278       -1.3492000700       -1.3618402917
 H         -3.4986441166       -1.8262160388        1.1919849407
 H         -3.4802175299       -3.5074308207        1.7424875659
 H         -3.2565591743       -4.2296901378       -0.6636335532
 H         -4.7693242645       -3.3734835691       -0.3542096562
 C          2.3754232786       -0.9602448499       -1.3022788682
 C          0.2467736003       -1.4782250801       -0.1488748444
 H          0.4248307649       -0.0100403261       -1.8564813984
 C          1.4021431545       -2.2819367240        0.4607397300
 C          2.4391871753       -2.3562237248       -0.6631763799
 H          2.1351671020       -3.1210745916       -1.3779862748
 H          3.4263495763       -2.6009595974       -0.2751928041
 H          3.0928974170       -0.2861528943       -0.8305277722
 H          2.5940561517       -0.9955789850       -2.3687622529
 H          1.1342455496       -3.2529041447        0.8769330598
 H         -1.5175153976       -1.1776229369       -2.1435347418
