  48
        -65.77446117
 Si         0.4045063902        3.2448888419       -0.8140833856
 C         -0.1246469542        3.7174132923       -2.5760437409
 H          0.1758293969        2.9693501676       -3.3027771953
 H          0.3287563102        4.6583360905       -2.8670582963
 H         -1.2010197851        3.8323140989       -2.6493925656
 C         -0.0698077691        4.5673581011        0.4710740200
 H          0.4533270758        5.5026026297        0.3008587249
 H          0.1775962811        4.2301469062        1.4741624956
 H         -1.1353639695        4.7791203101        0.4490851243
 C          2.2690107913        2.8746465025       -0.6891890005
 O         -0.4841642607        1.8757238805       -0.5721089116
 H          2.8669068882        3.7733960262       -0.7995604869
 H          2.5928189194        2.1718092742       -1.4524827971
 H          2.5035790873        2.4434022074        0.2809170695
 C         -0.4581534945        1.0284364503        0.4847628445
 C         -1.2991686933        1.1395237028        1.5026474584
 H         -2.0133301723        1.9410193373        1.5430352383
 H         -1.2830134959        0.4417349450        2.3183070089
 C          0.5684519976       -0.0461491161        0.4160921349
 C          1.5435733596       -0.1475309512        1.5474554260
 O          1.8983374973       -1.4291222457        1.7293959556
 C          1.0237319985       -0.5632492270       -0.9336204721
 C         -1.0970886333       -2.0070120809       -0.1666612683
 C         -1.7992002457       -1.8463400474       -1.2828204851
 C         -1.6716010794       -2.6888387417        1.0477614110
 O          1.9440492315        0.7466975358        2.2389536260
 C         -3.2143113615       -2.2958988871       -1.4595842291
 C         -3.1960592000       -2.6789385598        1.0045299373
 H         -1.3134899423       -2.1877157637        1.9499570089
 H         -1.3167126645       -3.7243981189        1.0849604444
 C         -3.6673716208       -3.2256325491       -0.3377202829
 H         -3.3220625064       -2.7900622094       -2.4287414043
 H         -3.8516819402       -1.4052408515       -1.4838259917
 H         -3.5540033895       -1.6548021500        1.1251089437
 H         -3.5954813226       -3.2795396537        1.8236523090
 H         -3.2391301990       -4.2186928370       -0.4897906868
 H         -4.7542665105       -3.3228421434       -0.3512512398
 C          2.4556660304       -1.0423933760       -1.0947031195
 C          0.2721655645       -1.4776268898       -0.0137796745
 H          0.5424369654       -0.1014831050       -1.7828514874
 C          1.3880952738       -2.2625771277        0.6868676917
 C          2.4720067303       -2.4054987823       -0.3851817187
 H          2.1883427804       -3.2011991000       -1.0742193327
 H          3.4378543108       -2.6424015899        0.0574398682
 H          3.1596024756       -0.3532287177       -0.6240972776
 H          2.7220757776       -1.1331904459       -2.1469493580
 H          1.0877776506       -3.2077293243        1.1389908316
 H         -1.3638360907       -1.3376853289       -2.1311374188
