  48
        -65.77445748
 Si         2.6151786804        1.5543710082       -0.0307541820
 C          2.3657058418        2.0913587840        1.7737398611
 H          1.4223655358        2.6120172480        1.9057710966
 H          3.1598350829        2.7564891980        2.0950177064
 H          2.3623755996        1.2336485676        2.4388353613
 C          4.0960537635        0.3850882145       -0.2660552921
 H          3.8408766052       -0.6098927717        0.0901330988
 H          4.9739693887        0.7199541545        0.2765724281
 H          4.3742546087        0.2919143569       -1.3122539710
 C          2.7507323371        3.0806902048       -1.1717983362
 O          1.2066193480        0.7496250248       -0.3165545156
 H          3.5515439848        3.7386168551       -0.8504381234
 H          1.8308101348        3.6589995499       -1.1641992868
 H          2.9531394451        2.8054850810       -2.2032333970
 C          0.8544284771       -0.2120131467       -1.1915928504
 C          1.1941752817       -0.2358246782       -2.4725303159
 H          1.8095534610        0.5355600611       -2.8962385715
 H          0.8768384442       -1.0345783866       -3.1156966098
 C          0.0346966056       -1.2707738144       -0.5413324102
 C          0.7707489226       -2.1396442075        0.4358759423
 O         -0.0485017575       -2.5046185154        1.4327884332
 C         -1.2297416571       -1.8087955966       -1.1700583798
 C         -1.8770501589        0.3565487009        0.2565406958
 C         -2.0109372733        0.9214827407        1.4530080496
 C         -2.2354891407        1.0830923320       -1.0123229298
 O          1.9310019649       -2.4388979164        0.3997427177
 C         -2.5556600381        2.2959772405        1.6807934983
 C         -2.3627728030        2.5848966378       -0.7788483108
 H         -3.1797894478        0.6825341146       -1.3969615820
 H         -1.4657932125        0.8986714825       -1.7650691870
 C         -3.2431332540        2.8464570200        0.4362006581
 H         -1.7273152408        2.9529028359        1.9675337305
 H         -3.2520798513        2.2756673344        2.5236249154
 H         -2.7802105629        3.0628914429       -1.6670750234
 H         -1.3699575846        3.0025671304       -0.6011493815
 H         -3.4299627757        3.9153806002        0.5532296610
 H         -4.2053563798        2.3486320739        0.2979270622
 C         -1.6173634029       -3.2532375831       -0.9058846810
 C         -1.3234945166       -1.0026689715        0.0965929043
 H         -1.5017512638       -1.3832916812       -2.1245839842
 C         -1.3885337851       -2.0794874319        1.1862028349
 C         -2.1510087035       -3.2361186321        0.5342697730
 H         -3.2175317014       -3.0110569397        0.5472089773
 H         -1.9767753613       -4.1714983244        1.0628816710
 H         -0.7526809200       -3.9142170325       -0.9912611639
 H         -2.3738281999       -3.5915760763       -1.6126634429
 H         -1.8151966551       -1.7633680691        2.1375775898
 H         -1.6986845751        0.3977547184        2.3454873648
