  48
        -65.77445180
 Si         0.3238106416        3.3198331234       -0.3924331463
 C          2.1914459752        2.9570960994       -0.4939299325
 H          2.5163752781        2.4046038214        0.3842902065
 H          2.7769618896        3.8695045885       -0.5398858348
 H          2.4412107102        2.3649845376       -1.3704688476
 C         -0.3685061480        4.0191577929       -2.0170465372
 H         -1.4465032323        4.1331812596       -1.9715867928
 H         -0.1419242907        3.3776594729       -2.8627202305
 H          0.0586508383        4.9945412902       -2.2213420036
 C         -0.0225457267        4.4514095245        1.0990090539
 O         -0.5417658304        1.9220434778       -0.2558417364
 H          0.3207576719        3.9853417799        2.0188556534
 H         -1.0850932936        4.6508215257        1.2086849690
 H          0.4822261008        5.4075012687        1.0071158480
 C         -0.4235900125        0.9393025593        0.6690488059
 C         -1.1841378400        0.8925662497        1.7531537249
 H         -1.9007989527        1.6661836683        1.9579989305
 H         -1.0976540557        0.0899079004        2.4608055271
 C          0.6030423125       -0.0964545726        0.3754352181
 C          1.6531362121       -0.3475511069        1.4124377526
 O          2.0217565951       -1.6379314849        1.3838507672
 C          0.9671539556       -0.4080935283       -1.0618558772
 C         -1.0947402344       -1.9696765857       -0.3708925776
 C         -1.8792253532       -1.6370994284       -1.3900500478
 C         -1.5778123621       -2.8441533246        0.7567199953
 O          2.0984525583        0.4429567851        2.1965547307
 C         -3.3050667370       -2.0649420275       -1.5303348758
 C         -3.1011480891       -2.8405192938        0.8308604329
 H         -1.1508013025       -2.4925597993        1.6986647351
 H         -1.2250370213       -3.8689059152        0.5984894849
 C         -3.6753681837       -3.1672802607       -0.5423985116
 H         -3.4874602457       -2.3972072743       -2.5557619185
 H         -3.9391844983       -1.1874859447       -1.3624910597
 H         -3.4448953445       -1.8524156350        1.1421355376
 H         -3.4393969278       -3.5688772581        1.5699705896
 H         -3.2639918617       -4.1191410479       -0.8850067980
 H         -4.7605659253       -3.2700322413       -0.4891393491
 C          2.3863508788       -0.8411876133       -1.3850111266
 C          0.2819917622       -1.4550766677       -0.2361576650
 H          0.4285239460        0.1644533953       -1.8021445670
 C          1.4445207144       -2.3188489776        0.2678784405
 C          2.4543984214       -2.2920001816       -0.8828011210
 H          2.1277788300       -2.9837120198       -1.6594584143
 H          3.4484842277       -2.5777489877       -0.5436547035
 H          3.1185194044       -0.2183374390       -0.8674239204
 H          2.5814953561       -0.7760758201       -2.4546365355
 H          1.1783101376       -3.3230307940        0.5974450358
 H         -1.5087003237       -0.9930118716       -2.1746407429
