  48
        -65.77443612
 Si         0.3258271829        3.3107912471       -0.3888320291
 C          2.1931480009        2.9500455386       -0.5047237485
 H          2.5253280320        2.3988551657        0.3717455743
 H          2.7782287844        3.8622821962       -0.5573862836
 H          2.4362017896        2.3557548918       -1.3816475024
 C         -0.3907172484        3.9781117977       -2.0162310435
 H         -1.4672756834        4.0977822144       -1.9548973286
 H         -0.1812298918        3.3179011199       -2.8518049395
 H          0.0367198037        4.9471159672       -2.2482927952
 C         -0.0063397871        4.4696145936        1.0850128953
 O         -0.5285419566        1.9100129821       -0.2146749304
 H          0.5045198685        5.4204323362        0.9744198971
 H          0.3378928117        4.0174079788        2.0113553840
 H         -1.0668891542        4.6784477822        1.1957161672
 C         -0.3699125477        0.9420021156        0.7205884033
 C         -1.0648104208        0.9271544064        1.8488078500
 H         -1.7578583599        1.7147857351        2.0797615614
 H         -0.9455506061        0.1386999448        2.5675852739
 C          0.6256075375       -0.1116576782        0.3878756221
 C          1.6907077235       -0.4029108713        1.3991940797
 O          2.0301024983       -1.7003836502        1.3423174714
 C          0.9567738398       -0.4057584882       -1.0618897130
 C         -1.1222192387       -1.9390793709       -0.3671893713
 C         -1.8838638713       -1.6455079500       -1.4150278906
 C         -1.6370112783       -2.7451149961        0.7965491574
 O          2.1698625591        0.3647817526        2.1859421589
 C         -3.3151627459       -2.0545257633       -1.5557543352
 C         -3.1610323174       -2.7148293296        0.8445127221
 H         -1.2191464459       -2.3497321087        1.7250825840
 H         -1.2970917933       -3.7817388347        0.6992271503
 C         -3.7181767677       -3.1007054723       -0.5206360481
 H         -3.4888529377       -2.4337775672       -2.5662401150
 H         -3.9362214579       -1.1595522620       -1.4403957135
 H         -3.4936631435       -1.7073024561        1.1008295495
 H         -3.5230730592       -3.4001642519        1.6129006393
 H         -3.3161085835       -4.0743399246       -0.8088224238
 H         -4.8055232824       -3.1847485743       -0.4806633900
 C          2.3603032725       -0.8626371375       -1.4188098047
 C          0.2652714762       -1.4515709297       -0.2417894280
 H          0.4151606160        0.1904839846       -1.7810533715
 C          1.4176018713       -2.3489978482        0.2263428775
 C          2.4064597500       -2.3232921929       -0.9426089580
 H          2.0509083105       -2.9942845602       -1.7247024120
 H          3.4002855847       -2.6357368973       -0.6270719912
 H          3.1151586719       -0.2642362746       -0.9049539430
 H          2.5368992081       -0.7834231394       -2.4907294308
 H          1.1340177868       -3.3525365790        0.5434779960
 H         -1.4870208025       -1.0520192110       -2.2264630037
