  48
        -65.77443713
 Si         2.1315039449        2.2236487888       -0.3255722280
 C          1.2132012196        3.5088503719        0.7356776575
 H          1.8548798842        4.3614868280        0.9301174815
 H          0.9192482353        3.0980069205        1.6967126340
 H          0.3173900110        3.8779120928        0.2453810086
 C          3.6116850210        1.4522961836        0.5868380167
 H          4.5461798115        1.9468137123        0.3415189575
 H          3.7136749579        0.3999310076        0.3349422429
 H          3.4862622192        1.5103080418        1.6643625611
 C          2.7065528421        3.0148429592       -1.9642045732
 O          0.9424664070        1.1023254384       -0.5433146628
 H          3.3079745056        2.3257957204       -2.5509555353
 H          3.3145839290        3.8946075115       -1.7781714292
 H          1.8645916632        3.3262532042       -2.5769192379
 C          0.8376944825       -0.0384464018       -1.2605551914
 C          1.1080122577       -0.1325698590       -2.5540580124
 H          1.4578438698        0.7151257585       -3.1116537339
 H          0.9969147707       -1.0634897085       -3.0766414693
 C          0.3773080892       -1.1977939291       -0.4461523924
 C          1.3598716788       -1.7222108160        0.5594685656
 O          0.7080936169       -2.2068124110        1.6268171756
 C         -0.6588879830       -2.1697101010       -0.9763571668
 C         -1.9798740704       -0.2218787632        0.2842848552
 C         -3.0191443930       -0.1668195507       -0.5407637832
 C         -1.7026943096        0.8398321632        1.3125405275
 O          2.5558373527       -1.6923010721        0.4811632346
 C         -4.0202796170        0.9448710582       -0.5457825433
 C         -2.9212107388        1.7256546072        1.5492082449
 H         -0.8657211257        1.4440000620        0.9525275620
 H         -1.3837125823        0.3762188501        2.2495294958
 C         -3.5013197129        2.1643118180        0.2100538079
 H         -4.9484288262        0.5879313246       -0.0855101096
 H         -4.2591202870        1.2116269252       -1.5785138739
 H         -2.6355366428        2.5946241120        2.1444992658
 H         -3.6797317030        1.1695932672        2.1051121005
 H         -4.3085691789        2.8840067051        0.3579703913
 H         -2.7174601649        2.6472119649       -0.3765243052
 C         -0.5709526078       -3.6297637742       -0.5669455558
 C         -0.9870679782       -1.3144036755        0.2103017163
 H         -1.0588845852       -1.9339584096       -1.9514129359
 C         -0.7003662849       -2.2409871396        1.3998533640
 C         -1.0718117467       -3.6351802566        0.8860738907
 H         -2.1555354828       -3.7483191758        0.9180630514
 H         -0.6122404135       -4.4148720440        1.4908972527
 H          0.4561310923       -3.9952424111       -0.6254139221
 H         -1.1900485977       -4.2552788652       -1.2084594736
 H         -1.1952542077       -1.9725396231        2.3338124847
 H         -3.1862108848       -0.9594632609       -1.2575194783
