  48
        -65.77438993
 Si         2.1329305624        2.2080152738       -0.3423640664
 C          1.2646829009        3.4590241894        0.7971003221
 H          1.9379416840        4.2741526917        1.0398864548
 H          0.9543228719        3.0024918249        1.7315966638
 H          0.3827500576        3.8888702942        0.3330917722
 C          3.6698021409        1.4312039052        0.4692671876
 H          3.6762529830        1.5948855092        1.5431460132
 H          4.5935736122        1.8421612899        0.0741108624
 H          3.6886742813        0.3562986878        0.3093300747
 C          2.6146622282        3.0474319306       -1.9876417802
 O          0.9453683038        1.0795556189       -0.5247876147
 H          3.1931276135        2.3821820943       -2.6229216619
 H          3.2212378596        3.9298345504       -1.8093497195
 H          1.7387428283        3.3639301989       -2.5478619358
 C          0.8108427465       -0.0419441118       -1.2660329744
 C          1.0375168598       -0.1098390205       -2.5695603080
 H          1.3738688285        0.7476763831       -3.1202131728
 H          0.9040095510       -1.0286667923       -3.1080819992
 C          0.3646697891       -1.2107166365       -0.4575935089
 C          1.3538260558       -1.7305078173        0.5435593587
 O          0.7098343187       -2.2069298860        1.6189162546
 C         -0.6784260693       -2.1825538802       -0.9731035853
 C         -1.9713018832       -0.2133734164        0.2911357718
 C         -2.9786423271       -0.0999336575       -0.5666351551
 C         -1.7259146349        0.7870150848        1.3883554246
 O          2.5493896801       -1.7020781667        0.4564412271
 C         -3.9699380234        1.0200920001       -0.5510915332
 C         -2.4450581965        2.0999910509        1.0991549529
 H         -0.6517151193        0.9597335229        1.4770774512
 H         -2.0773038144        0.3753032019        2.3407488419
 C         -3.9012323526        1.8211025068        0.7458547378
 H         -4.9762636854        0.6188456882       -0.6979096300
 H         -3.7607480183        1.6761246137       -1.4032406494
 H         -1.9563344788        2.5957319865        0.2589250597
 H         -2.3809864806        2.7581029765        1.9674121883
 H         -4.3635149849        1.2487788493        1.5530958482
 H         -4.4551380412        2.7551927474        0.6359832279
 C         -0.5917080473       -3.6395627843       -0.5519391325
 C         -0.9953427198       -1.3192907179        0.2105075513
 H         -1.0848446878       -1.9548356138       -1.9472338182
 C         -0.7010133710       -2.2363194169        1.4053014286
 C         -1.0820603135       -3.6326438711        0.9049806996
 H         -2.1659525282       -3.7414391953        0.9454406553
 H         -0.6210444276       -4.4100677686        1.5115977447
 H          0.4338430168       -4.0085610865       -0.6148852187
 H         -1.2172521147       -4.2683756004       -1.1838935278
 H         -1.1837646065       -1.9549582047        2.3413802825
 H         -3.1115899500       -0.8346426561       -1.3491336301
