  48
        -65.77438002
 Si         0.4015501168        3.2833410818       -0.3315599984
 C          2.2701647428        2.9156705676       -0.3949768569
 H          2.5720490828        2.3491674791        0.4828621706
 H          2.8624606629        3.8245006139       -0.4172554131
 H          2.5370639479        2.3310563999       -1.2715349175
 C         -0.2849342821        3.8939189851       -1.9941999361
 H         -1.3672479836        3.9675474283       -1.9715455347
 H         -0.0182041704        3.2310149276       -2.8113376745
 H          0.1083349335        4.8768306416       -2.2281754511
 C          0.0345892159        4.4965067987        1.0897981744
 O         -0.4511475361        1.8866201416       -0.1250094224
 H          0.5195850899        5.4549305276        0.9362765008
 H          0.3870425299        4.0983337044        2.0375334860
 H         -1.0317395363        4.6812226641        1.1873793516
 C         -0.2621980665        0.9176840442        0.8042194873
 C         -0.8811210317        0.9286161858        1.9759902441
 H         -1.5302928274        1.7399641103        2.2486183143
 H         -0.7396520470        0.1390206443        2.6894104123
 C          0.6694279691       -0.1715223054        0.4093784646
 C          1.7213250658       -0.5801284405        1.3937296237
 O          1.9758626011       -1.8924859853        1.2696053474
 C          0.9708648830       -0.4139765842       -1.0565810053
 C         -1.1986502067       -1.8380764366       -0.4129271360
 C         -1.9472298620       -1.4447656774       -1.4371926215
 C         -1.7582909569       -2.6528663023        0.7236416381
 O          2.2559974537        0.1148735999        2.2114563448
 C         -3.4061377263       -1.7417397371       -1.5750625182
 C         -3.2760304511       -2.5189165258        0.7911192002
 H         -1.3059615851       -2.3241718186        1.6620704958
 H         -1.4917761080       -3.7056954925        0.5816316168
 C         -3.8719083144       -2.8030368120       -0.5826598966
 H         -3.6194664033       -2.0594522708       -2.5990747394
 H         -3.9583710690       -0.8103460202       -1.4088542985
 H         -3.5348024832       -1.5032534955        1.0960150156
 H         -3.6781419017       -3.2111699534        1.5329168222
 H         -3.5419316984       -3.7882365537       -0.9190729902
 H         -4.9620605081       -2.8127150765       -0.5325768003
 C          2.3408105256       -0.9394001661       -1.4477909218
 C          0.2202995361       -1.4535653523       -0.2827472882
 H          0.4628790468        0.2490892473       -1.7407135791
 C          1.3155416377       -2.4445707285        0.1292351581
 C          2.2965517401       -2.4225483322       -1.0464876622
 H          1.8936331922       -3.0285896616       -1.8581160831
 H          3.2703303958       -2.8133852414       -0.7568295782
 H          3.1344838974       -0.4165305445       -0.9103692358
 H          2.5169029996       -0.8168828512       -2.5157097347
 H          0.9704188800       -3.4426610406        0.3990682109
 H         -1.5164000291       -0.8466882131       -2.2276074081
