  48
        -65.77437604
 Si         0.3185478525        3.3076902219       -0.3771747343
 C          2.1807432401        2.9544621150       -0.5746720846
 H          2.5530398301        2.4059316727        0.2873930724
 H          2.7604992280        3.8680142337       -0.6559224267
 H          2.3872350536        2.3575635234       -1.4591614265
 C         -0.4938881360        3.8943693999       -1.9903186298
 H         -0.1043191380        4.8643408546       -2.2783163641
 H         -1.5690751390        3.9893043620       -1.8800669126
 H         -0.3076222134        3.2086784815       -2.8108224478
 C          0.0526433665        4.5348593476        1.0547439595
 O         -0.5026454382        1.9051603406       -0.0912468930
 H          0.5302557837        5.4895399914        0.8601270595
 H          0.4675077415        4.1430808735        1.9796542098
 H         -1.0037039836        4.7258760228        1.2231624382
 C         -0.2369342960        0.9648134561        0.8486478404
 C         -0.7552871759        1.0142118984        2.0677325313
 H         -1.3838982714        1.8330081625        2.3656702708
 H         -0.5452859220        0.2521033119        2.7943759038
 C          0.6718431220       -0.1297569043        0.4170003497
 C          1.7903959747       -0.4992452781        1.3435609994
 O          2.0641868575       -1.8086208448        1.2283524822
 C          0.8991892042       -0.3901181069       -1.0616507339
 C         -1.1887670410       -1.8750482400       -0.3258502865
 C         -1.8496369501       -1.8443031339       -1.4771957110
 C         -1.8218117386       -2.3347188252        0.9590478196
 O          2.3604647527        0.2219567320        2.1129863106
 C         -3.2781140385       -2.2591706331       -1.6321514909
 C         -3.0920568157       -3.1368553107        0.6952280297
 H         -2.0590168881       -1.4498080131        1.5582207254
 H         -1.1068285300       -2.9294043657        1.5331276233
 C         -3.9800967903       -2.3759195142       -0.2823581950
 H         -3.3080126891       -3.2229210899       -2.1527241184
 H         -3.7974487260       -1.5378285098       -2.2679827727
 H         -3.6206707308       -3.3135256600        1.6334477643
 H         -2.8306684250       -4.1065914658        0.2660036724
 H         -4.9389503749       -2.8830587952       -0.4031293075
 H         -4.1721518887       -1.3771521358        0.1141158555
 C          2.2576056544       -0.8906129181       -1.5198063135
 C          0.2164546868       -1.4286256640       -0.2284207093
 H          0.3313218958        0.2444096709       -1.7261358756
 C          1.3548580377       -2.3917099668        0.1355464928
 C          2.2675603721       -2.3678331817       -1.0942219568
 H          1.8322439890       -2.9952164583       -1.8721974561
 H          3.2641261095       -2.7342202589       -0.8542812683
 H          3.0677406663       -0.3423992787       -1.0348344133
 H          2.3726471420       -0.7817949453       -2.5975118109
 H          1.0437450861       -3.3932607505        0.4349371687
 H         -1.3496339835       -1.5178557966       -2.3789129852
