  48
        -65.77436895
 Si         0.4566588105        3.2823014634       -0.5003770738
 C          0.2703775430        4.5553275161        0.9037478223
 H         -0.7724877858        4.8068524031        1.0767055160
 H          0.7965118900        5.4781419357        0.6823384466
 H          0.6728487125        4.1633791478        1.8340490179
 C          2.2969493101        2.8346159356       -0.7113884932
 H          2.9171534568        3.7161632521       -0.8359073739
 H          2.4608941668        2.1958440944       -1.5753193111
 H          2.6572119272        2.3020858678        0.1656737468
 C         -0.3484748931        3.8689047527       -2.1170498323
 O         -0.4262329329        1.9277176459       -0.1698812933
 H          0.0821516555        4.8128325559       -2.4319070482
 H         -1.4165788098        4.0165974750       -1.9964299132
 H         -0.2047739024        3.1568461132       -2.9234636729
 C         -0.2033953398        1.0119602343        0.8047706619
 C         -0.7213296444        1.1288566811        2.0194377907
 H         -1.3150956892        1.9841320092        2.2845702613
 H         -0.5455776603        0.3860212478        2.7745720867
 C          0.6598558183       -0.1352951251        0.4185758366
 C          1.7662340607       -0.5063583000        1.3591622394
 O          1.9898967383       -1.8289335201        1.3009105580
 C          0.8743873078       -0.4674316810       -1.0477239514
 C         -1.2649893311       -1.8441438146       -0.2523028244
 C         -1.9132632966       -1.8677814196       -1.4109228963
 C         -1.9240470045       -2.1998158057        1.0522291247
 O          2.3652275517        0.2254676613        2.0958928639
 C         -3.3524200701       -2.2481145553       -1.5552881838
 C         -3.2170185416       -2.9769258342        0.8263547807
 H         -2.1380335130       -1.2711309557        1.5907842448
 H         -1.2332388643       -2.7783227636        1.6707917993
 C         -4.0707973019       -2.2541843657       -0.2091046008
 H         -3.4069251590       -3.2429099367       -2.0114617765
 H         -3.8429747258       -1.5552265278       -2.2433985745
 H         -3.7601234279       -3.0747802477        1.7678115097
 H         -2.9830642368       -3.9805549008        0.4645079572
 H         -5.0441969592       -2.7378828675       -0.3077618529
 H         -4.2345999868       -1.2260523521        0.1190753411
 C          2.2116987160       -1.0386622103       -1.4848988427
 C          0.1546776335       -1.4421979922       -0.1699019153
 H          0.3289544611        0.1584741922       -1.7387461945
 C          1.2566219556       -2.4313158686        0.2348718717
 C          2.1668808810       -2.4953531167       -0.9952729819
 H          1.7066897339       -3.1392930246       -1.7448886457
 H          3.1494874728       -2.8881817281       -0.7400279046
 H          3.0434999127       -0.5010301573       -1.0254758376
 H          2.3276363199       -0.9815448259       -2.5664922433
 H          0.9076884367       -3.4061996210        0.5775740783
 H         -1.3940837813       -1.6163509702       -2.3257936777
