  48
        -65.77432100
 Si         0.4794605392        3.2674222515       -0.0803377621
 C          0.8046590710        4.3421615412        1.4580328292
 H          1.5153958436        3.8608138323        2.1244642031
 H         -0.1088014689        4.5144893693        2.0207443812
 H          1.2114824837        5.3120475501        1.1910857260
 C          2.1264665902        2.9053263677       -0.9687219957
 H          2.6995285562        3.8089856901       -1.1481802731
 H          1.9696735046        2.4224574689       -1.9297058856
 H          2.7410318559        2.2413318468       -0.3652979947
 C         -0.8251557256        4.0355311926       -1.2272796625
 O         -0.2550550627        1.8539150555        0.3463184860
 H         -1.7898712746        4.1067749336       -0.7357578909
 H         -0.9614163786        3.4544047153       -2.1339399437
 H         -0.5290737775        5.0363503907       -1.5209523379
 C          0.2826066108        0.7939709591        0.9996084631
 C          0.3074930965        0.7148090133        2.3228018045
 H         -0.0656135098        1.5199251151        2.9285885516
 H          0.7187180269       -0.1413850923        2.8232170228
 C          0.8210298283       -0.2835841983        0.1293074635
 C          2.1149094471       -0.9227362141        0.5341194623
 O          2.1221002768       -2.2127781234        0.1608285056
 C          0.4874261842       -0.3021857449       -1.3523165210
 C         -1.4305484912       -1.6595975958       -0.0979811058
 C         -2.4361220282       -1.3392676009       -0.9038360891
 C         -1.6420356161       -2.2653843138        1.2626454330
 O          3.0201856937       -0.4117426305        1.1308463117
 C         -3.8775777610       -1.5403428208       -0.5599397443
 C         -3.0508700248       -2.8320593028        1.4062776334
 H         -1.4760026512       -1.4847518204        2.0122641627
 H         -0.8972010405       -3.0450717038        1.4413090259
 C         -4.0664344252       -1.7991585265        0.9318641766
 H         -4.2623710092       -2.3882253375       -1.1375707302
 H         -4.4482320576       -0.6603502367       -0.8669595502
 H         -3.2375248195       -3.1014072380        2.4472001531
 H         -3.1458889781       -3.7359100268        0.8004802496
 H         -5.0833983226       -2.1449567579        1.1252059038
 H         -3.9132628427       -0.8693839754        1.4829628900
 C          1.5140385799       -0.8488995211       -2.3283066214
 C         -0.0253870248       -1.3964126294       -0.4708139687
 H         -0.1665285036        0.4919607018       -1.6807408130
 C          1.0012564804       -2.5192606067       -0.6683171196
 C          1.4349466092       -2.3714303907       -2.1299402172
 H          0.6689497604       -2.8038149634       -2.7738629566
 H          2.3830307525       -2.8736995478       -2.3138131926
 H          2.5158543365       -0.4796337606       -2.0998707854
 H          1.2732563010       -0.5636834187       -3.3516365188
 H          0.6568505132       -3.5209935777       -0.4087377876
 H         -2.2342720563       -0.9153379638       -1.8780536293
