  48
        -65.77425592
 Si         0.5426422623        3.2304484382       -0.2877871015
 C          2.3919158626        2.8421994742       -0.5393316331
 H          2.5623888396        2.2501887755       -1.4347113650
 H          2.7751978795        2.2741410556        0.3050904763
 H          2.9895752235        3.7435363413       -0.6263572585
 C         -0.3170120707        3.7989319643       -1.8832690236
 H          0.0502400541        4.7733323319       -2.1853197950
 H         -1.3905231312        3.8778284837       -1.7463540136
 H         -0.1412541566        3.1128090606       -2.7058828321
 C          0.3387696613        4.4936815365        1.1230518907
 O         -0.2813992052        1.8427384966        0.0472888804
 H         -0.7098572362        4.6813797700        1.3373420179
 H          0.7970491528        5.4460757351        0.8772655223
 H          0.8019719853        4.1338441503        2.0378712749
 C          0.0105732994        0.8870301353        0.9645764027
 C         -0.3675697476        0.9810898612        2.2318960194
 H         -0.8863289956        1.8525274401        2.5867049132
 H         -0.1480049828        0.2043884447        2.9395830475
 C          0.7558426757       -0.2871705761        0.4416295543
 C          1.8042654762       -0.8985972470        1.3213543144
 O          1.8654557750       -2.2226144601        1.1040386329
 C          0.9354239078       -0.4679325100       -1.0561333314
 C         -1.3619311893       -1.6383738419       -0.3904799749
 C         -2.0223819621       -1.4008908195       -1.5176335258
 C         -2.0469452776       -2.0673277282        0.8782403206
 O          2.4858246475       -0.3401393177        2.1338368366
 C         -3.5056540118       -1.5302083469       -1.6577027233
 C         -3.4580328677       -2.5777566332        0.6044414612
 H         -2.0859522892       -1.2049192512        1.5519185920
 H         -1.4531564434       -2.8371676280        1.3777466386
 C         -4.1918264667       -1.5910145355       -0.2962685076
 H         -3.7282740650       -2.4384276658       -2.2288452386
 H         -3.8885220133       -0.6868571308       -2.2377115249
 H         -3.9941956395       -2.7072419312        1.5460782241
 H         -3.4064877598       -3.5492998529        0.1080327029
 H         -5.2358048265       -1.8856123550       -0.4167079759
 H         -4.1688123261       -0.6019209763        0.1650522852
 C          2.1981444924       -1.1385562204       -1.5670454609
 C          0.0997712310       -1.4465530237       -0.2943053642
 H          0.4718183026        0.2939536709       -1.6649032797
 C          1.0706726796       -2.6019027176       -0.0193568799
 C          1.9749507020       -2.6275222608       -1.2554842885
 H          1.4457379881       -3.1163698344       -2.0735967883
 H          2.9012676399       -3.1636236521       -1.0567973669
 H          3.0843054872       -0.7628379796       -1.0515421066
 H          2.3291744999       -0.9664059999       -2.6346148811
 H          0.6054055303       -3.5616830810        0.2082980318
 H         -1.4840450162       -1.1037806365       -2.4072799728
