  48
        -65.77407720
 Si         1.1775199948        3.0013110070       -0.2162021449
 C          1.7056019588        4.1029510214        1.2455444754
 H          0.8560071642        4.3645252271        1.8704987704
 H          2.1556506202        5.0293012933        0.9032036140
 H          2.4346087094        3.5993748715        1.8747839790
 C          2.7217480527        2.4407180389       -1.1842178595
 H          3.3711626904        3.2730767581       -1.4343433331
 H          2.4570875266        1.9430850416       -2.1134783348
 H          3.3025327989        1.7361470198       -0.5938600541
 C         -0.1079352401        3.8629739610       -1.3179947115
 O          0.3325009359        1.6838245088        0.2927922665
 H         -1.0300807066        4.0486787176       -0.7770523698
 H         -0.3557169334        3.2698498845       -2.1927909219
 H          0.2691993959        4.8180340103       -1.6663009496
 C          0.7584175795        0.5755714975        0.9513280563
 C          1.0306207780        0.5812016335        2.2490440491
 H          0.9698246307        1.4918455508        2.8159882587
 H          1.3399601894       -0.3094923028        2.7607820455
 C          0.8383805035       -0.6497245756        0.1158426820
 C          1.8011391787       -1.7279072032        0.5141740204
 O          1.2953764827       -2.9304837789        0.1934142559
 C          0.4692372572       -0.5832759062       -1.3585185221
 C         -1.7709933789       -1.0523015300        0.0029660667
 C         -2.6150965278       -0.4031678798       -0.7899779129
 C         -2.1265645541       -1.4674562023        1.4044781141
 O          2.8571341087       -1.5961699557        1.0651859249
 C         -4.0033206463       -0.0165809498       -0.3901514775
 C         -3.6346354633       -1.4316859459        1.6299234145
 H         -1.6278537228       -0.7830300128        2.0990342384
 H         -1.7342853814       -2.4677625832        1.6053958576
 C         -4.1955022209       -0.1089847043        1.1206977900
 H         -4.7138427852       -0.6784702508       -0.8979138292
 H         -4.2095436930        0.9990104392       -0.7368609955
 H         -3.8537057610       -1.5564930159        2.6916856563
 H         -4.1053885968       -2.2551385154        1.0883374885
 H         -5.2547539429       -0.0213353000        1.3688148168
 H         -3.6639184298        0.7129827109        1.6037253933
 C          1.1728447091       -1.5125282484       -2.3313014804
 C         -0.3922618887       -1.3678396445       -0.4227768413
 H          0.1563203528        0.3893950280       -1.7067558596
 C          0.1133673968       -2.8050269104       -0.5964451614
 C          0.5180311558       -2.8791885102       -2.0719389114
 H         -0.3777864891       -2.9981663789       -2.6816113492
 H          1.1908691925       -3.7147796826       -2.2562244684
 H          2.2464706372       -1.5530484548       -2.1366607676
 H          1.0277070220       -1.1855054796       -3.3601216768
 H         -0.5810780992       -3.5872707194       -0.2877233478
 H         -2.3150748333       -0.1326964868       -1.7931165005
