  48
        -65.77405272
 Si         1.9288365120        2.6434741274       -0.3069702011
 C          2.0527382611        3.9625999877        1.0627475787
 H          2.6254558656        3.6051168819        1.9140671443
 H          1.0699807598        4.2529737125        1.4243657864
 H          2.5434768886        4.8596707554        0.6985967663
 C          3.6423199237        1.8801392858       -0.6370215229
 H          4.3980552898        2.6366274162       -0.8201398532
 H          3.6238542082        1.2196120979       -1.4997434463
 H          3.9665765407        1.2884484288        0.2151856467
 C          1.1342544606        3.3714724808       -1.8736093767
 O          0.8584117363        1.4447990641        0.0452342008
 H          1.6950518153        4.2336277221       -2.2167396043
 H          0.1143426214        3.6950330325       -1.6902906238
 H          1.1099696044        2.6536740869       -2.6879060279
 C          0.8730992557        0.4379644327        0.9575172273
 C          1.0338467732        0.6423358767        2.2571590976
 H          1.2063146104        1.6310808255        2.6389926695
 H          1.0177608915       -0.1701805399        2.9565084538
 C          0.6419489658       -0.9068883124        0.3717613304
 C          1.1443852211       -2.1072429435        1.1177828319
 O          0.3265641730       -3.1506813373        0.9081183707
 C          0.4980365512       -1.0585491508       -1.1329981444
 C         -1.9435289739       -0.5665783120       -0.1575545215
 C         -2.8759620767       -0.8985752820        0.7310202766
 C         -2.1058825515        0.5948431931       -1.0996671841
 O          2.1056647513       -2.1730837743        1.8305626513
 C         -4.1916290021       -0.2001799583        0.8670970349
 C         -3.2588992191        1.5033015160       -0.6842226817
 H         -2.2779357081        0.2067326829       -2.1094010354
 H         -1.1811497554        1.1728646735       -1.1204347143
 C         -4.4892969402        0.6695400972       -0.3496751694
 H         -4.1691985730        0.4192226865        1.7701626459
 H         -4.9827173719       -0.9413552056        1.0088167346
 H         -3.4802785787        2.2079142027       -1.4879687804
 H         -2.9650828020        2.0768449668        0.1969639401
 H         -5.3468801896        1.3139684668       -0.1486731950
 H         -4.7367406811        0.0330647779       -1.2019037674
 C          0.9803592520       -2.3393005627       -1.7908185492
 C         -0.6854133552       -1.3355191466       -0.2577336140
 H          0.5764079133       -0.1421630807       -1.6978515778
 C         -0.6444051844       -2.8599926787       -0.0954085318
 C         -0.1054303698       -3.3666713086       -1.4362500916
 H         -0.9080867919       -3.3504278051       -2.1736759998
 H          0.2804650380       -4.3806643366       -1.3495257840
 H          1.9502621154       -2.6476364366       -1.3954206114
 H          1.0790957566       -2.2115024812       -2.8680580542
 H         -1.5846939187       -3.3234910586        0.2032461559
 H         -2.7041863820       -1.7124104627        1.4225466464
