  48
        -65.77625576
 Si         2.8960021510       -0.8981063191       -0.3153536250
 C          3.7431675115       -0.2252781887        1.2564434968
 H          3.4973106973       -0.8145394734        2.1352438473
 H          3.4412499570        0.7980052407        1.4613162758
 H          4.8236665530       -0.2299033508        1.1536510664
 C          3.4999097612       -2.6718231876       -0.6695741707
 H          4.5398841533       -2.6816511370       -0.9797711725
 H          2.9165690571       -3.1292988479       -1.4640500719
 H          3.4151391395       -3.3137445850        0.2024412999
 C          3.2178936992        0.2391604477       -1.8026921612
 O          1.2590864372       -0.8152419163       -0.2216454944
 H          2.8981310308       -0.2198842878       -2.7327879070
 H          4.2755340629        0.4600618193       -1.8943771489
 H          2.6873385471        1.1799657733       -1.7034553117
 C          0.3135086487       -1.4233308535        0.5350540262
 C          0.5769827759       -2.2345067367        1.5500695130
 H          1.5905470268       -2.4659131629        1.8186791791
 H         -0.2110484893       -2.6983788749        2.1094380665
 C         -1.0597904676       -1.0517537742        0.1048287996
 C         -2.2562110609       -1.6163644884        0.8114293724
 O         -3.2513138301       -0.7139023078        0.8073919070
 C         -1.2710347981       -0.6391832787       -1.3521700238
 C         -0.5909743038        1.5644892251       -0.0105458748
 C         -0.0999516701        2.2947167999       -1.0043578552
 C         -0.3617097132        1.8990832594        1.4380242585
 O         -2.3652066134       -2.6823523695        1.3484296535
 C          0.7181033716        3.5314853385       -0.8060340169
 C          0.7899611740        2.8857707244        1.5991215320
 H         -0.1509205754        0.9784285367        1.9888476484
 H         -1.2794399814        2.3248334687        1.8582450485
 C          0.6163504628        4.0465262030        0.6267171402
 H          0.3902253267        4.3002896019       -1.5107702814
 H          1.7635443599        3.3064937683       -1.0437775287
 H          1.7303113578        2.3759907935        1.3817803286
 H          0.8283105603        3.2488039781        2.6277017031
 H         -0.3637431062        4.5025612254        0.7819556964
 H          1.3754298135        4.8106552999        0.8034145361
 C         -2.6087198584       -0.9271227787       -2.0089959230
 C         -1.4304418043        0.3751981286       -0.2685692385
 H         -0.3785532028       -0.6540940121       -1.9598739558
 C         -2.9454893361        0.3996333062       -0.0285095947
 C         -3.5469942303        0.1343959861       -1.4117784884
 H         -3.5129429539        1.0525532189       -1.9983300680
 H         -4.5785609423       -0.2046674906       -1.3357110665
 H         -2.9599363158       -1.9335363859       -1.7727707758
 H         -2.5382459681       -0.8393974719       -3.0923630808
 H         -3.3260552869        1.2987197781        0.4577110755
 H         -0.2808396488        2.0010030397       -2.0294296550
