  48
        -65.77401066
 Si         2.9224426619       -0.7553736992       -0.1054217822
 C          2.8911065685       -1.3611517523       -1.9174639996
 H          2.3385911824       -2.2918493352       -2.0191049257
 H          3.8959429887       -1.5390977401       -2.2861113860
 H          2.4323735348       -0.6316495429       -2.5802242633
 C          3.7623068998        0.9467974653        0.0197361407
 H          3.3543977950        1.6571198418       -0.6926038204
 H          4.8244311788        0.8609526994       -0.1834111782
 H          3.6496992821        1.3744124728        1.0112999680
 C          3.8362094010       -2.0469693000        0.9530601709
 O          1.3796654978       -0.4579141272        0.3626200314
 H          4.8100209805       -2.2806890739        0.5343761070
 H          3.2751456530       -2.9754742472        1.0134986147
 H          3.9977262627       -1.6929965159        1.9674159404
 C          0.3903918901       -1.1588206255        0.9790205006
 C          0.5708516118       -1.8047286938        2.1218867022
 H          1.5351162699       -1.8215562383        2.5936892015
 H         -0.2322432594       -2.3361898929        2.5926626376
 C         -0.9122092993       -1.0664197152        0.2715227897
 C         -2.1292851565       -1.7332470433        0.8410016826
 O         -3.2206517570       -1.0061530500        0.5533898065
 C         -0.9124098222       -0.8538865530       -1.2406730697
 C         -0.7842530641        1.5618718986       -0.1210509960
 C         -0.9580451597        2.1992418119        1.0312619305
 C          0.0385516999        2.1231295174       -1.2468166326
 O         -2.1865258475       -2.7416732946        1.4867040000
 C         -0.3612501744        3.5342633056        1.3434305011
 C          0.2898942089        3.6161057041       -1.0611466763
 H         -0.4706375277        1.9372917554       -2.1964987251
 H          0.9916458491        1.5875823130       -1.2734339468
 C          0.7559044946        3.8840744416        0.3651680395
 H          0.0186249310        3.5295129405        2.3678980836
 H         -1.1496665010        4.2941279720        1.2982296001
 H         -0.6332568546        4.1691797862       -1.2483965875
 H          1.0385705678        3.9581871960       -1.7784137786
 H          1.6276260175        3.2633052039        0.5777808427
 H          1.0438068387        4.9302958784        0.4838767572
 C         -2.0583997697       -1.4208476790       -2.0600665493
 C         -1.4028752646        0.2369431381       -0.3470544679
 H          0.0648068584       -0.7996184960       -1.6951107230
 C         -2.9241887449        0.0465201546       -0.3614462478
 C         -3.2247213657       -0.4602197490       -1.7752636313
 H         -3.2112153193        0.3806464510       -2.4690053830
 H         -4.1970755457       -0.9469419287       -1.8229773588
 H         -2.3076978258       -2.4367759949       -1.7473878374
 H         -1.8051641706       -1.4460341077       -3.1192898649
 H         -3.5019071466        0.9228828241       -0.0649719547
 H         -1.5632675459        1.7512019550        1.8085656700
