  48
        -65.77376244
 Si        -0.1809720678        2.8590768853        0.1072745370
 C         -1.8220830382        3.7502697322       -0.2578667249
 H         -1.9677066510        4.5744579193        0.4316095244
 H         -2.6752976288        3.0863264179       -0.1596846361
 H         -1.8374305142        4.1558127909       -1.2640226944
 C         -0.2896057774        2.0195292865        1.8183419607
 H          0.6874451394        1.7158845153        2.1813215905
 H         -0.9241016628        1.1365260185        1.7931056090
 H         -0.7066086873        2.6991814919        2.5552732930
 C          1.3079841162        4.0346970900        0.0138922535
 O         -0.1686029577        1.7870653715       -1.1404678873
 H          1.3340825654        4.5629043748       -0.9351710486
 H          2.2375465900        3.4810535788        0.1073413100
 H          1.2809494205        4.7775058043        0.8045738727
 C          0.5752047418        0.7714405194       -1.6231023932
 C          0.8367609339        0.6902939844       -2.9220475470
 H          0.4854342094        1.4483331627       -3.5973488131
 H          1.4154995354       -0.1146085942       -3.3321096026
 C          1.0736869519       -0.2331309580       -0.6424609829
 C          2.0879444773        0.2814358112        0.3365130156
 O          2.0131503533       -0.4074226326        1.4840220352
 C          1.2032979728       -1.6987791062       -1.0154179577
 C         -1.1742465896       -1.5373932163        0.1415256133
 C         -2.0836028272       -0.6506078736       -0.2434177392
 C         -1.5523159254       -2.9118857361        0.6379123419
 O          2.8459108808        1.1963810806        0.1769669969
 C         -3.5590980342       -0.8975033071       -0.2158439149
 C         -2.9825010195       -3.2727003697        0.2477701647
 H         -1.4513899087       -2.9442153371        1.7277382699
 H         -0.8574333763       -3.6471106275        0.2247947550
 C         -3.9181632034       -2.1270102718        0.6122690110
 H         -3.9070295636       -1.0276843670       -1.2462605303
 H         -4.0630277386       -0.0120724102        0.1795499697
 H         -3.2834314397       -4.1911269178        0.7552087242
 H         -3.0323235292       -3.4483520050       -0.8286492085
 H         -4.9570899659       -2.4093168886        0.4336404511
 H         -3.8087068580       -1.8979424078        1.6743175148
 C          2.3776150139       -2.5012331402       -0.4819659439
 C          0.2857652739       -1.2891575244        0.1051702033
 H          0.7854158033       -1.9769365184       -1.9720332279
 C          1.1513529515       -1.5348236996        1.3521633003
 C          2.0234674308       -2.7428034059        0.9948030920
 H          1.4448807025       -3.6588698038        1.1112697866
 H          2.9011271220       -2.7945628451        1.6367847580
 H          3.3106551396       -1.9412899510       -0.5702161455
 H          2.4922356447       -3.4371098780       -1.0272718565
 H          0.6012017390       -1.6395676519        2.2878840962
 H         -1.7866151302        0.3152117665       -0.6174227789
