  48
        -65.77372475
 Si         0.0591292718        2.9562971692       -0.0303254376
 C         -1.5518700084        3.9219205395       -0.3365501824
 H         -1.5784726221        4.8185765571        0.2727068224
 H         -2.4304124836        3.3331306538       -0.0916551586
 H         -1.6417418171        4.2257612118       -1.3742059846
 C          0.1079541290        2.3680372923        1.7848729677
 H         -0.1651249157        3.1737534749        2.4595187716
 H          1.0998913850        2.0328092197        2.0713175270
 H         -0.5820981469        1.5465016142        1.9634387657
 C          1.6067457494        3.9685337682       -0.4633495646
 O         -0.1558740537        1.7162874690       -1.0918028303
 H          2.4985234795        3.3595935343       -0.3476519640
 H          1.7112168488        4.8376555558        0.1778734317
 H          1.5760573718        4.3176325359       -1.4918639462
 C          0.5494999320        0.6788742736       -1.5880381822
 C          0.7935057858        0.5825778271       -2.8885276788
 H          0.4604672469        1.3484402635       -3.5643155021
 H          1.3382570860       -0.2448944358       -3.3006662764
 C          1.0215720897       -0.3339386805       -0.6030836883
 C          2.0618574714        0.1451775417        0.3661259165
 O          1.9551981558       -0.5215586568        1.5239501252
 C          1.0814221132       -1.8099251407       -0.9560933539
 C         -1.2826096912       -1.5126275775        0.2043104333
 C         -2.1405411957       -0.5071481958        0.0905342543
 C         -1.7309825935       -2.9381967158        0.4112822022
 O          2.8650051275        1.0179939663        0.1896055145
 C         -3.6268969017       -0.6667581685        0.1489845538
 C         -3.1985396757       -3.1181163519        0.0356255239
 H         -1.5831211615       -3.2119417593        1.4615429287
 H         -1.1053221898       -3.6038257290       -0.1886759116
 C         -4.0347679354       -2.0303740298        0.6986270085
 H         -4.0271152235       -0.5372595503       -0.8622497085
 H         -4.0506374425        0.1321917420        0.7626148069
 H         -3.5418430787       -4.1073884658        0.3440459375
 H         -3.3072174699       -3.0440922901       -1.0482118953
 H         -5.0974816094       -2.2031637891        0.5201164449
 H         -3.8658020743       -2.0555668892        1.7772373991
 C          2.2176077118       -2.6586122971       -0.4109130595
 C          0.1883738205       -1.3419306022        0.1580534776
 H          0.6525825726       -2.0800553519       -1.9102388752
 C          1.0409964061       -1.6091212180        1.4096274037
 C          1.8489838469       -2.8649632880        1.0677151192
 H          1.2191694857       -3.7459442310        1.1902136506
 H          2.7211767774       -2.9587370871        1.7123217463
 H          3.1758255034       -2.1438033079       -0.5037604894
 H          2.2899357426       -3.6057293234       -0.9439769649
 H          0.4833349120       -1.6738410169        2.3448611530
 H         -1.7866612424        0.4975426466       -0.0778472407
