  48
        -65.77362306
 Si         0.4909669748        3.3223329880       -0.4781107431
 C          2.3358156815        2.8567230347       -0.5614137816
 H          2.5524217369        2.2167495376       -1.4128583455
 H          2.6309433065        2.3239145330        0.3391436398
 H          2.9691420128        3.7339381590       -0.6437304870
 C         -0.1644551993        3.9837104976       -2.1338657366
 H          0.0172189834        3.2878498030       -2.9469014459
 H          0.3233197498        4.9184581708       -2.3866394452
 H         -1.2327824984        4.1690143992       -2.0931943759
 C          0.2011608427        4.5325262696        0.9627088107
 O         -0.4459532754        1.9774593761       -0.2836594995
 H          0.7642796586        5.4515271500        0.8378979459
 H          0.5082530270        4.0840499597        1.9038068224
 H         -0.8479515554        4.8006792242        1.0531895761
 C         -0.3726408370        1.0297921076        0.6835959460
 C         -1.1001174779        1.0843961771        1.7897748712
 H         -1.7536137161        1.9152543069        1.9811424767
 H         -1.0512373417        0.3032884226        2.5245135152
 C          0.5737593685       -0.0846623385        0.4142529115
 C          1.6408045282       -0.3195126746        1.4389286145
 O          1.9540151870       -1.6219942354        1.4797794145
 C          0.9005807309       -0.4928451893       -1.0038360974
 C         -1.2136835907       -1.9290617421       -0.2752785750
 C         -2.1609654926       -1.1062468514       -0.7189903325
 C         -1.5093052424       -3.3606617312        0.0909003392
 O          2.1414805060        0.4973610932        2.1600999191
 C         -3.6008952607       -1.4809372988       -0.8697935612
 C         -2.8718261167       -3.8116157361       -0.4295885087
 H         -1.4801692698       -3.4602543683        1.1810131991
 H         -0.7354152985       -4.0135913236       -0.3207983331
 C         -3.9271213974       -2.7615345694       -0.1099771737
 H         -3.8248554589       -1.6131725552       -1.9341411920
 H         -4.2228673368       -0.6565048999       -0.5130699848
 H         -3.1348677827       -4.7714858443        0.0186343939
 H         -2.8194967398       -3.9475675376       -1.5117658280
 H         -4.9204422881       -3.1206415235       -0.3844250113
 H         -3.9230288999       -2.5602242103        0.9629194352
 C          2.2923242600       -1.0067403871       -1.3256882737
 C          0.1798048397       -1.4643851189       -0.1044113695
 H          0.3615279217        0.0372270237       -1.7755150504
 C          1.3195240961       -2.3445576323        0.4230124181
 C          2.3031616419       -2.4307927825       -0.7480427217
 H          1.9270940097       -3.1457867264       -1.4802559706
 H          3.2899839880       -2.7464596651       -0.4142886165
 H          3.0614939041       -0.3932907087       -0.8522271650
 H          2.4708385749       -1.0061527667       -2.4001122291
 H          1.0327675084       -3.3128117796        0.8309032407
 H         -1.9176426169       -0.0900471886       -0.9905875829
