  48
        -65.77361637
 Si         2.2480475890       -2.4446982873       -0.4892632612
 C          0.8271691716       -3.3419316023       -1.3865272800
 H          0.4959066986       -2.7962783589       -2.2662254268
 H         -0.0273906357       -3.4492953107       -0.7226157654
 H          1.1165909214       -4.3363255460       -1.7099469870
 C          3.6242561913       -1.8787678891       -1.6696229966
 H          4.3673024653       -1.2791022805       -1.1541670348
 H          3.2355668842       -1.2851837528       -2.4910587758
 H          4.1309730988       -2.7369249863       -2.0965169713
 C          2.9060132685       -3.5409079985        0.9213440145
 O          1.7227458804       -0.9957299868        0.1027928141
 H          2.1090771106       -3.7895174209        1.6171295790
 H          3.6894436930       -3.0396978415        1.4833002306
 H          3.3172021794       -4.4729191769        0.5476789598
 C          0.6601487504       -0.7645139300        0.9147355298
 C          0.7469511336       -0.8251098692        2.2358625248
 H          1.6693378537       -1.0960160161        2.7153385613
 H         -0.1006836674       -0.6118673380        2.8593250608
 C         -0.6163115092       -0.4551486752        0.2177347390
 C         -1.8070066454       -1.2555177442        0.6578506186
 O         -2.9256445412       -0.5388504069        0.4924982737
 C         -0.6264283507       -0.0051486445       -1.2268345288
 C         -0.5717328904        2.2307167668        0.1931610999
 C         -1.2982463119        3.3457039655        0.1853825885
 C          0.8966377034        2.2523447190        0.5234202318
 O         -1.7991572161       -2.3623633795        1.1186650546
 C         -0.7663479071        4.7068470823        0.5106084024
 C          1.4815459015        3.6545370498        0.3884779579
 H          1.4379395422        1.5610167036       -0.1237970498
 H          1.0293350881        1.8971021030        1.5497154375
 C          0.6139239105        4.6439175963        1.1550896601
 H         -1.4709222063        5.2201375920        1.1705110514
 H         -0.7172226633        5.2902112838       -0.4158071598
 H          1.5105816509        3.9406922415       -0.6650012943
 H          2.5035531674        3.6636026805        0.7705619798
 H          0.5201799262        4.3105417374        2.1903662110
 H          1.0698756128        5.6355182148        1.1592518901
 C         -1.7539702349       -0.4515469195       -2.1406075940
 C         -1.1547739270        0.9193389287       -0.1580071016
 H          0.3451447244        0.1657710761       -1.6674766987
 C         -2.6683842407        0.6702309300       -0.2208035397
 C         -2.9479031141        0.4120953696       -1.7040157692
 H         -2.9508167372        1.3625565821       -2.2377157292
 H         -3.9061745681       -0.0837827177       -1.8474840532
 H         -1.9762057712       -1.5124332878       -2.0079558793
 H         -1.4981763202       -0.2864773854       -3.1863989340
 H         -3.2951829138        1.4409198971        0.2259992197
 H         -2.3438396626        3.3223557300       -0.0879410753
