  48
        -65.77614242
 Si         3.0568312787       -0.5720108398       -0.1544547370
 C          4.0166050511       -2.1175707124        0.4167428294
 H          4.0715414039       -2.1893089407        1.4993715232
 H          5.0357958066       -2.1100814945        0.0433842708
 H          3.5410569661       -3.0251706189        0.0553810737
 C          3.4069889782       -0.1792766396       -1.9801446960
 H          2.7982632934        0.6470726087       -2.3333838826
 H          3.2044192399       -1.0340448393       -2.6176776457
 H          4.4469437329        0.0944235617       -2.1196005711
 C          3.4868982202        0.9170899628        0.9576819797
 O          1.4345584391       -0.8176833591       -0.2086669197
 H          4.5591671181        1.0216952866        1.0880716727
 H          3.0441042976        0.8204855687        1.9452552230
 H          3.1205484122        1.8431232660        0.5240852026
 C          0.4851050616       -1.2094253202        0.6706969738
 C          0.7284700678       -1.5737934569        1.9226119091
 H          1.7323864098       -1.6014050064        2.3026796917
 H         -0.0630705545       -1.8885183487        2.5737914294
 C         -0.8830924387       -1.1438017623        0.0935167815
 C         -2.0083381255       -1.8810267066        0.7548797337
 O         -3.1518676028       -1.1897886563        0.6073232264
 C         -1.0367245086       -0.8556973221       -1.3952643219
 C         -0.8746805496        1.4873862978       -0.1237814399
 C         -0.2021543571        2.1642742758       -1.0467369100
 C         -1.0310507930        1.9840731733        1.2880947515
 O         -1.9550990853       -2.9100963021        1.3660305531
 C          0.4525067294        3.4869397235       -0.8025047761
 C         -0.7676482681        3.4835707815        1.3771855760
 H         -0.3228409560        1.4406941264        1.9230264607
 H         -2.0328777031        1.7509692966        1.6569851831
 C          0.5508534934        3.8098336403        0.6862089447
 H         -0.1297594139        4.2623129556       -1.3130935161
 H          1.4472330733        3.4873652927       -1.2562101582
 H         -0.7368418090        3.7941653458        2.4229589886
 H         -1.5784217750        4.0263437180        0.8862652345
 H          0.8043166374        4.8628122807        0.8225708067
 H          1.3425087389        3.2104742304        1.1388722138
 C         -2.2343587497       -1.4278335535       -2.1319480847
 C         -1.4791827076        0.1693296180       -0.4025662726
 H         -0.1068695941       -0.7411926523       -1.9315858481
 C         -2.9861441844       -0.0853484427       -0.2805887350
 C         -3.4024968356       -0.5351261243       -1.6839961559
 H         -3.4875055757        0.3399263742       -2.3285639854
 H         -4.3558315156       -1.0600869118       -1.6643782484
 H         -2.4116832075       -2.4685716018       -1.8539074827
 H         -2.0856699899       -1.3864923363       -3.2101139519
 H         -3.5735516104        0.7476706327        0.1077174794
 H         -0.1201095780        1.7728143631       -2.0513251602
