  48
        -65.77360517
 Si         0.5807418840        3.2198907138       -0.8871616790
 C          0.0854711218        3.6073094229       -2.6798059934
 H          0.5709875234        4.5159058914       -3.0177858664
 H         -0.9859588585        3.7505671893       -2.7736303469
 H          0.3709823747        2.8103826366       -3.3591962605
 C          0.1658979420        4.6439865782        0.3066710100
 H          0.7366345501        5.5387057461        0.0807483451
 H          0.3902161448        4.3612649003        1.3317469707
 H         -0.8874430497        4.9071096695        0.2610949493
 C          2.4196907142        2.7542803908       -0.7208768555
 O         -0.3811271762        1.9165916723       -0.5687203543
 H          2.7119077645        2.0017548486       -1.4487707326
 H          2.6181712978        2.3525108572        0.2697802790
 H          3.0684013421        3.6126074116       -0.8612797282
 C         -0.3793011018        1.1147180834        0.5251470493
 C         -1.1618524840        1.3358824765        1.5713034975
 H         -1.8056390433        2.1950966163        1.6077560333
 H         -1.1684506813        0.6664511592        2.4104223159
 C          0.5541787530       -0.0407291895        0.4660890940
 C          1.5459596391       -0.1602050116        1.5822269653
 O          1.8216742725       -1.4518181262        1.8100313150
 C          0.9611088463       -0.6347249427       -0.8628847226
 C         -1.2334441198       -1.9256121838       -0.0993856905
 C         -2.1271976689       -1.1504537978       -0.7089715900
 C         -1.5920154755       -3.2898426066        0.4308914912
 O          2.0202384164        0.7338607702        2.2254856215
 C         -3.5648984507       -1.5130540203       -0.9040060650
 C         -2.9309353846       -3.7788752658       -0.1157801133
 H         -1.6350081959       -3.2443941851        1.5241424724
 H         -0.8123937209       -4.0067834353        0.1609132585
 C         -3.9743094389       -2.6752987725       -0.0066310389
 H         -3.7256770824       -1.7799675385       -1.9544172318
 H         -4.1841415019       -0.6364248110       -0.6993646383
 H         -3.2487524333       -4.6659054016        0.4352234994
 H         -2.8139900676       -4.0573179327       -1.1651322062
 H         -4.9580823120       -3.0479833412       -0.2968964288
 H         -4.0321434586       -2.3339973233        1.0286664217
 C          2.3570046084       -1.2099984558       -1.0213903735
 C          0.1585453477       -1.4689677561        0.1024675567
 H          0.4873770540       -0.1992296509       -1.7305904998
 C          1.2382765395       -2.2935703633        0.8137587884
 C          2.2930440372       -2.5476561539       -0.2675657271
 H          1.9462632362       -3.3441873285       -0.9264108259
 H          3.2475586667       -2.8353053990        0.1694827089
 H          3.1093558637       -0.5540916945       -0.5787188770
 H          2.6051603804       -1.3510238131       -2.0724751873
 H          0.9005526782       -3.1958472051        1.3216382567
 H         -1.8387255323       -0.1843455133       -1.0949575192
