  48
        -65.77360343
 Si         0.5935725392        3.2997091271       -0.5833170350
 C          0.5256096000        4.4171688077        0.9551679827
 H         -0.4855706715        4.7600683767        1.1564345644
 H          1.1546942210        5.2946810560        0.8486826120
 H          0.8677721305        3.8703371078        1.8299915517
 C          2.3882640317        2.7267098201       -0.8674562261
 H          3.0525208194        3.5670280120       -1.0406095395
 H          2.4712008823        2.0627583201       -1.7238362053
 H          2.7569016918        2.1951143241        0.0059682514
 C         -0.1489043337        4.1104860960       -2.1320266941
 O         -0.4206767210        2.0114579744       -0.3883777286
 H          0.4082506059        5.0025836250       -2.3953510219
 H         -1.1818685270        4.4011681968       -1.9720873777
 H         -0.1247457689        3.4426860737       -2.9871809995
 C         -0.4145706459        1.0729065171        0.5892001411
 C         -1.2020167979        1.1512096328        1.6522613530
 H         -1.8538526867        1.9928032763        1.7965387885
 H         -1.2072173830        0.3776091648        2.3965119789
 C          0.5314769168       -0.0569946175        0.3903659131
 C          1.5946606002       -0.2224646515        1.4324292249
 O          1.9094196762       -1.5189377392        1.5593821466
 C          0.8669983151       -0.5541333037       -0.9968481295
 C         -1.2476293326       -1.9477350727       -0.1948329135
 C         -2.1963619561       -1.1559111403       -0.6889314394
 C         -1.5372838645       -3.3614705864        0.2392581881
 O          2.0905196484        0.6411917722        2.1004770805
 C         -3.6324332170       -1.5473670544       -0.8336178556
 C         -2.8874286238       -3.8491473327       -0.2801448311
 H         -1.5257191701       -3.4061429967        1.3333033397
 H         -0.7515784343       -4.0274291089       -0.1264727195
 C         -3.9568495838       -2.7964398608       -0.0221335187
 H         -3.8472720526       -1.7261846634       -1.8929903839
 H         -4.2625075636       -0.7126640302       -0.5171630565
 H         -3.1479692228       -4.7908985568        0.2063035899
 H         -2.8177325414       -4.0320172343       -1.3544028958
 H         -4.9428070550       -3.1772091898       -0.2938680216
 H         -3.9698730541       -2.5481082763        1.0407837654
 C          2.2600249967       -1.0881289621       -1.2787772407
 C          0.1421527940       -1.4667473797       -0.0398914959
 H          0.3309474682       -0.0765397975       -1.8041809690
 C          1.2800459218       -2.3095965007        0.5492869724
 C          2.2689580133       -2.4713895450       -0.6091161734
 H          1.8969503502       -3.2333357990       -1.2945357354
 H          3.2544598166       -2.7634400475       -0.2508361442
 H          3.0279382636       -0.4452244199       -0.8443433616
 H          2.4422643851       -1.1582030813       -2.3502806944
 H          0.9916266159       -3.2491324508        1.0186116064
 H         -1.9567669864       -0.1532094361       -1.0100288392
