  48
        -65.77360281
 Si         0.2432565823        3.4004801221        0.0550147692
 C          1.7069504722        3.1307978109       -1.1358967155
 H          2.2004085249        4.0678681085       -1.3725903253
 H          1.3912752504        2.6816257369       -2.0737872782
 H          2.4493274692        2.4795223987       -0.6831247310
 C         -1.0370845122        4.5930847455       -0.6843486069
 H         -0.5862408368        5.5601889258       -0.8766585014
 H         -1.8741489900        4.7463968382       -0.0114159515
 H         -1.4350894121        4.2223264333       -1.6233852942
 C          0.9051481935        3.9412137839        1.7532693815
 O         -0.6673634831        2.0318307024        0.2194223940
 H          1.4641862788        4.8694474750        1.6988130417
 H          1.5695552245        3.1770582582        2.1486255427
 H          0.1010806928        4.0816457156        2.4705171544
 C         -0.3571155132        0.8738542497        0.8471874131
 C         -0.8455713601        0.5644675980        2.0398914369
 H         -1.4834106472        1.2473262521        2.5698488214
 H         -0.6181401848       -0.3755907089        2.5057081938
 C          0.5636630016       -0.0351107877        0.1128981619
 C          1.9384799906       -0.1898081417        0.6847159379
 O          2.4031830542       -1.4193720404        0.4238771712
 C          0.4271711428       -0.2397028324       -1.3784614469
 C         -1.1174116787       -2.0645612478       -0.2142174227
 C         -2.2549331693       -1.3751143086       -0.2614771404
 C         -1.0907550305       -3.5359905703        0.1092407703
 O          2.5508823970        0.6217502041        1.3210592017
 C         -3.6036970168       -1.9513259648        0.0299281426
 C         -2.4807260230       -4.1632948971        0.0344533137
 H         -0.6790064567       -3.6686367207        1.1152516403
 H         -0.4285865488       -4.0550416014       -0.5883954612
 C         -3.4922542779       -3.2854920799        0.7586403402
 H         -4.1463984429       -2.0866161098       -0.9121624860
 H         -4.1742978608       -1.2364537724        0.6274426693
 H         -2.4541245497       -5.1627524347        0.4723609792
 H         -2.7780236734       -4.2613227904       -1.0116501215
 H         -4.4660190623       -3.7764330155        0.7986914021
 H         -3.1553766425       -3.1145358052        1.7827924382
 C          1.6699116507       -0.4899565807       -2.2143602989
 C          0.1834386187       -1.4003901094       -0.4467682514
 H         -0.4031158451        0.2701619270       -1.8450705206
 C          1.5325371096       -2.1301582850       -0.4590073911
 C          2.0497931766       -1.9426757610       -1.8881405668
 H          1.5297086599       -2.6349315318       -2.5507313572
 H          3.1210704979       -2.1256795796       -1.9495121055
 H          2.4783034179        0.1900264448       -1.9396828334
 H          1.4603664039       -0.3565847994       -3.2747905951
 H          1.5245486785       -3.1669038218       -0.1256801598
 H         -2.2447727698       -0.3240946232       -0.5094721673
