  48
        -65.77358820
 Si         1.9238704489       -2.7891918390       -0.3564216244
 C          0.2875590614       -3.6292540813       -0.8579933510
 H         -0.4506791231       -3.5259430966       -0.0677226923
 H          0.4276988675       -4.6911698258       -1.0321296741
 H         -0.1287735424       -3.2013393620       -1.7660177247
 C          3.2644718734       -3.0534179711       -1.6760433739
 H          2.9664506932       -2.6477409606       -2.6374114827
 H          3.4592434504       -4.1114407223       -1.8109591218
 H          4.1986534212       -2.5784273332       -1.3953979544
 C          2.4269086007       -3.3782663656        1.3794141408
 O          1.7918558727       -1.1424411555       -0.3744050014
 H          1.6466777403       -3.1253469458        2.0928659389
 H          3.3450166783       -2.9026357842        1.7133444417
 H          2.5777543811       -4.4519052288        1.4205411128
 C          1.1330101512       -0.3296320485        0.4833453437
 C          1.7668345747        0.3988012374        1.3915315316
 H          2.8338669996        0.3396076028        1.5007338696
 H          1.2314302545        1.0668933668        2.0391529919
 C         -0.3478485843       -0.2979731705        0.3433560886
 C         -1.1315302575       -0.9308003773        1.4508838859
 O         -2.3031249124       -0.2971619852        1.5977903209
 C         -1.0020361451       -0.2829101122       -1.0192003078
 C         -0.5914015002        2.2557366201       -0.3474059672
 C          0.5760732519        2.4058047085       -0.9687080798
 C         -1.3757429251        3.4340567930        0.1691109430
 O         -0.7853314466       -1.8404816868        2.1517328322
 C          1.2511997806        3.7214711422       -1.1906803184
 C         -0.8576084198        4.7558797855       -0.3925259282
 H         -1.3138903481        3.4473868290        1.2623505341
 H         -2.4292512459        3.3223238854       -0.0995340129
 C          0.6611469237        4.8067927241       -0.2977497468
 H          1.1423469566        4.0062167222       -2.2430432516
 H          2.3209644507        3.6092435567       -0.9992199454
 H         -1.3062513313        5.5863206452        0.1556142526
 H         -1.1527408339        4.8446619747       -1.4400711654
 H          1.0311155001        5.7876491475       -0.6008762721
 H          0.9651774989        4.6334865720        0.7362288331
 C         -2.3409622162       -0.9727302810       -1.2126456955
 C         -1.1577813531        0.9102697582       -0.1098161502
 H         -0.3262279334       -0.2431965318       -1.8610765722
 C         -2.5173653445        0.6533070104        0.5521597549
 C         -3.3471150636       -0.0245256493       -0.5419696228
 H         -3.6943083173        0.7306221875       -1.2476125868
 H         -4.2067647340       -0.5445974860       -0.1231269150
 H         -2.3575281666       -1.9528568891       -0.7327424420
 H         -2.5599574368       -1.1098427151       -2.2706650595
 H         -3.0050760718        1.5150928732        1.0054604119
 H          1.1096295261        1.5437489164       -1.3407723125
