  48
        -65.77352612
 Si         1.1825822961        3.0968927482        0.2786611236
 C          0.8910612302        3.2453429148        2.1491976498
 H         -0.1601647994        3.1466687711        2.4025101717
 H          1.2294722906        4.2075177081        2.5179930672
 H          1.4340513691        2.4742261328        2.6864441691
 C          3.0247976523        3.1209479943       -0.1869240389
 H          3.5457511742        3.9683304631        0.2463320058
 H          3.1679124535        3.1619135146       -1.2633082964
 H          3.5020942075        2.2129355522        0.1714041018
 C          0.2135118851        4.4502894120       -0.6597439845
 O          0.5300087979        1.6140036583       -0.0320541529
 H          0.4535370612        5.4369250924       -0.2773668567
 H         -0.8586433875        4.3102992568       -0.5524229837
 H          0.4366085678        4.4532651980       -1.7230513320
 C          0.7311914062        0.7076162120       -1.0108153062
 C          0.8449434076        1.0117355019       -2.2955545085
 H          0.7801145394        2.0316350634       -2.6249633250
 H          1.0151218039        0.2588396371       -3.0406739523
 C          0.8354078555       -0.6725800467       -0.4639357116
 C          1.8571445938       -0.8388479600        0.6271937769
 O          1.4479463092       -1.7729378496        1.4986991401
 C          0.4918547633       -1.9061621463       -1.2769983796
 C         -1.7623144811       -1.1942191194       -0.0529115892
 C         -2.1841387987       -0.0319257041        0.4290544715
 C         -2.7027822551       -2.2467567574       -0.5793836964
 O          2.8767746786       -0.2241596804        0.7624198671
 C         -3.6227170020        0.3730702362        0.4863381186
 C         -4.0706911822       -1.6520329997       -0.8993378284
 H         -2.8089365002       -3.0365571822        0.1723993437
 H         -2.2712085237       -2.7069384415       -1.4716792943
 C         -4.5563115632       -0.8163685927        0.2793690453
 H         -3.8000890821        1.1256029452       -0.2895703638
 H         -3.8264404207        0.8526830445        1.4468903116
 H         -4.7812155283       -2.4507875633       -1.1203072004
 H         -3.9908874093       -1.0150374616       -1.7824622670
 H         -5.5750602753       -0.4658886355        0.1044002963
 H         -4.5629108757       -1.4356944552        1.1787628318
 C          1.2773885042       -3.1843186312       -1.0358721681
 C         -0.3268920622       -1.5586627843       -0.0695237576
 H          0.1022325112       -1.7248017589       -2.2679379412
 C          0.2807423752       -2.4437475729        1.0298316813
 C          0.7220577726       -3.7141435163        0.2965014112
 H         -0.1461877205       -4.3507234997        0.1255495309
 H          1.4612249304       -4.2664745844        0.8739262975
 H          2.3470846211       -2.9813352987       -0.9569151669
 H          1.1271872595       -3.8965434336       -1.8462068799
 H         -0.3679156759       -2.6232092607        1.8883249784
 H         -1.4706062131        0.6963339635        0.7861029973
