  48
        -65.77350955
 Si         2.4174702386        2.3183054424       -0.3764665296
 C          4.1713893255        2.1523454820        0.3463945519
 H          4.8171063424        2.9563158654        0.0078206607
 H          4.6261859728        1.2139207769        0.0417418280
 H          4.1708887093        2.1727241476        1.4323816126
 C          2.4595733414        2.6153479549       -2.2526662664
 H          2.9927093065        3.5317368566       -2.4800532855
 H          1.4614816904        2.7057870549       -2.6702635035
 H          2.9611980255        1.8051012739       -2.7719823367
 C          1.4564555514        3.7136175381        0.5040751299
 O          1.5865245683        0.8985675916       -0.3185021190
 H          1.9762864006        4.6626379852        0.4216921819
 H          1.3208252878        3.5078602913        1.5621163171
 H          0.4684830119        3.8450015311        0.0711574473
 C          1.1962858443        0.0671260514        0.6715486768
 C          1.4359669489        0.2625856393        1.9616346531
 H          1.9931928108        1.1147799927        2.3016687214
 H          1.1027997528       -0.4425591821        2.6984012281
 C          0.4654188572       -1.1337815486        0.1835138147
 C          0.8026323014       -2.4359192035        0.8529480372
 O         -0.2597043977       -3.2524306286        0.8228069306
 C          0.0174296404       -1.2253364297       -1.2606773755
 C         -2.0459869351       -0.1794441833        0.0468539170
 C         -3.3394126573       -0.4766859255        0.1490244233
 C         -1.5590940453        1.2431376674        0.1147432076
 O          1.8365063391       -2.7351879638        1.3782693987
 C         -4.4256327223        0.5305383054        0.3663152935
 C         -2.6906915164        2.2444296245       -0.0942620818
 H         -0.7847011705        1.4052177204       -0.6356993874
 H         -1.0967161580        1.4076179148        1.0929431933
 C         -3.8694212259        1.8821463425        0.7988456672
 H         -5.1239120002        0.1490809006        1.1159980674
 H         -4.9906235203        0.6426884837       -0.5659256119
 H         -3.0108351748        2.2231925397       -1.1381889779
 H         -2.3351911137        3.2517828967        0.1299601483
 H         -3.5303680884        1.8241916949        1.8349187123
 H         -4.6481906760        2.6444772036        0.7392183432
 C          0.0362084912       -2.5701594539       -1.9649174341
 C         -1.0192302579       -1.2207486102       -0.1663046334
 H          0.1940900489       -0.3413885874       -1.8558729418
 C         -1.3096825193       -2.7168182217        0.0207745377
 C         -1.1809738312       -3.3076285504       -1.3859345757
 H         -2.0801646718       -3.0735785368       -1.9560159798
 H         -1.0475146933       -4.3872872686       -1.3520309062
 H          0.9576385789       -3.1156862354       -1.7514048528
 H         -0.0422749459       -2.4463385620       -3.0440840393
 H         -2.2451892683       -2.9595501556        0.5231315786
 H         -3.6817805235       -1.4977731767        0.0597294343
