  48
        -65.77350754
 Si         1.1498147998        3.1190423775        0.2693859865
 C          0.9228619337        3.2486384335        2.1501185659
 H          1.2576851611        4.2134854982        2.5151791399
 H          1.4979042852        2.4825229682        2.6605160829
 H         -0.1167493917        3.1291842822        2.4397601235
 C          2.9744770881        3.1687513981       -0.2588560442
 H          3.4952862657        4.0289786673        0.1484873379
 H          3.0803172838        3.2012248301       -1.3398233354
 H          3.4786298626        2.2724762646        0.0919873161
 C          0.1336207434        4.4674694953       -0.6251252669
 O          0.5007918819        1.6329571284       -0.0349190043
 H          0.3160024762        4.4767301838       -1.6961299177
 H          0.3793594018        5.4545194153       -0.2474994890
 H         -0.9323685286        4.3174056271       -0.4777272912
 C          0.7007643938        0.7264857297       -1.0140984136
 C          0.7874008158        1.0291717361       -2.3012882392
 H          0.6996182494        2.0471714983       -2.6314119925
 H          0.9571932881        0.2777419731       -3.0479274531
 C          0.8360788558       -0.6496544760       -0.4639748504
 C          1.8652799755       -0.7904038476        0.6238940374
 O          1.4791034266       -1.7294722085        1.5005181684
 C          0.5178635840       -1.8938273481       -1.2712013901
 C         -1.7488368613       -1.2313735757       -0.0455944337
 C         -2.1992719761       -0.0657477562        0.4009397500
 C         -2.6633679507       -2.3251952970       -0.5325471147
 O          2.8727954910       -0.1547158314        0.7525725146
 C         -3.6480428961        0.3021310898        0.4533112827
 C         -4.0486687940       -1.7783803287       -0.8629529991
 H         -2.7440638858       -3.0932546865        0.2444774383
 H         -2.2240261019       -2.8015441607       -1.4125156270
 C         -4.5502280775       -0.9180834546        0.2910493322
 H         -3.8496455374        1.0235641925       -0.3458824799
 H         -3.8598477927        0.8075478633        1.3987426665
 H         -4.7383798949       -2.6028745491       -1.0532261717
 H         -3.9912283867       -1.1686894499       -1.7668418186
 H         -5.5790234582       -0.6010112342        0.1112392042
 H         -4.5351084937       -1.5076681083        1.2101001281
 C          1.3323773949       -3.1532405247       -1.0274107008
 C         -0.3048788752       -1.5597650926       -0.0623532916
 H          0.1203622515       -1.7258272192       -2.2613301809
 C          0.3252725277       -2.4273144084        1.0382210092
 C          0.7921448847       -3.6904882539        0.3082273340
 H         -0.0625009818       -4.3463835334        0.1418292556
 H          1.5446523140       -4.2245925110        0.8855649756
 H          2.3974661144       -2.9261862894       -0.9517204780
 H          1.1962515037       -3.8715539886       -1.8348481499
 H         -0.3163916280       -2.6175597172        1.8996373488
 H         -1.5042341919        0.6923300720        0.7312466613
