# B3LYP/6-31+G* OPT=(TS, CALCALL, NOEIGEN, maxcycles=100) Freq 

pp_14_1 TS

0 1
C    1.20093600       1.54110000      -1.48126900     
C    0.37540600       0.41709300      -0.92592600     
C    1.09104200      -0.90956900      -0.94199600     
O    0.54425100       2.68061300      -1.74922400     
O    1.79288700       3.33958000      -2.90019600     
O    2.27055200      -1.05890200      -1.06042000     
H    1.39111500       4.10792200      -3.30928200     
H    2.22225600       1.69303000      -1.13227500     
H    1.35963800       1.86614300      -3.00034800     
H    0.40301600      -1.78053400      -0.94875200     
H   -0.57873100       0.33373900      -1.45560000     
H    0.16116400       0.65766000       0.11931100     

