# B3LYP/6-31+G* OPT=(TS, CALCALL, NOEIGEN, maxcycles=100) Freq 

pp_13_2 TS

0 1
C    1.40829400       1.71466300      -1.38063000     
C    0.68740900       0.50658100      -0.90037400     
C    1.38493600      -0.70840100      -0.67920800     
O    0.56634000       2.77139600      -1.55017600     
O    1.22168400       3.88500500      -2.14647400     
O    2.60736400      -0.83696500      -0.80320800     
H    0.59471300       4.59493500      -1.96982600     
H    2.42668800       1.97976300      -1.16211100     
H    1.35689700       0.84758000      -2.64604900     
H    0.73383200      -1.56423800      -0.44099600     
H   -0.02912900       0.50551800      -2.80676100     
H   -0.21516900       0.66659100      -0.33360800     

