# B3LYP/6-31+G* OPT=(TS, CALCALL, NOEIGEN, maxcycles=100) Freq 

pp_15_1 TS

0 1
C    1.45971100       1.65710400      -1.82810500     
C    0.56214000       0.69099300      -1.09702800     
C    1.18455400      -0.66877300      -0.95712300     
O    1.09352100       2.26074000      -2.88385300     
O    0.62309700       3.28047500      -1.34664500     
O    2.21847800      -1.01193600      -1.45608700     
H    0.54440700       4.00787000      -1.96126900     
H    2.42026400       1.86918200      -1.35062400     
H    1.82320100       0.99779800      -3.18751500     
H    0.58642800      -1.36556200      -0.34083000     
H   -0.38507100       0.58934700      -1.63430000     
H    0.33087100       1.09408000      -0.10977900     

