# B3LYP/6-31+G* OPT=(TS, CALCALL, NOEIGEN, maxcycles=100) Freq 

pp_16_0 TS

0 1
C    1.17247600       1.42509600      -2.12593600     
C    0.18001600       0.68765800      -1.26253900     
C    1.45681500      -1.18787600      -1.05129300     
O    0.71179700       2.68775200      -2.56325600     
O    0.64219400       3.58248700      -1.44956500     
O    2.59689000      -1.02444900      -1.21818500     
H    0.69581400       4.44492500      -1.87986700     
H    2.13050000       1.54589400      -1.60274200     
H    1.33854700       0.89312500      -3.06758900     
H    0.46791600      -0.84190500      -0.55445500     
H   -0.74226300       0.51625400      -1.80782200     
H   -0.04176600       1.22121100      -0.34239200     

