# B3LYP/6-31+G* OPT=(TS, CALCALL, NOEIGEN, maxcycles=100) Freq 

pp_17_0 TS

0 1
C    1.67268400       1.28140000      -2.44817400     
C    0.65289400       1.01470400      -0.97502300     
C    1.20488000      -0.50769100      -0.81334300     
O    0.45902300       1.75629400      -2.60206000     
O    0.62161500       3.22519500      -1.38052200     
O    1.85538100      -0.75742300       0.17315900     
H    0.76868300       3.81688600      -2.11707400     
H    2.40187400       1.63593900      -1.73553200     
H    1.73780500       1.01600600      -3.50073600     
H    0.83774000      -1.30197700      -1.48356800     
H   -0.43737800       0.94841600      -1.04053000     
H    0.90202300       1.45033400      -0.01862500     

