# B3LYP/6-31+G* OPT=(TS, CALCALL, NOEIGEN, maxcycles=100) Freq 

pp_12_1 TS

0 1
C    1.00428400       1.66056400      -1.21083000     
C    0.18325800       0.64409100      -0.72222300     
C    1.47483100      -0.51117300      -1.45126800     
O    0.54223100       2.51223300      -2.12808200     
O    1.57543800       3.33333100      -2.66052700     
O    2.06963100      -0.99043000      -0.52861100     
H    1.09279300       3.97551300      -3.19906800     
H    1.88775600       1.97323300      -0.66735400     
H    1.87746900       0.61268500      -2.36880900     
H    0.87813300      -0.93766200      -2.24660700     
H   -0.75441500       0.40149200      -1.19491900     
H    0.25655400       0.42924800       0.32867900     

