# B3LYP/6-31+G* OPT=(TS, CALCALL, NOEIGEN, maxcycles=100) Freq 

pp_19_0 TS

0 1
C    1.81997500       1.41077600      -1.98555400     
C    1.09588900       0.68998200      -0.86149700     
C    0.62125600      -0.58202800      -1.26639700     
O    1.05486400       2.32207400      -2.74284200     
O    0.74193100       3.44364600      -1.91925300     
O   -0.04703800      -1.30906300      -0.50968300     
H    0.32618500       4.05813900      -2.54579800     
H    2.69443500       1.93190400      -1.57034900     
H    2.14457700       0.69194100      -2.73992900     
H    0.76075800      -0.88950000      -2.31708300     
H   -0.09584500       0.17187900      -0.17791600     
H    1.32581400       1.00324000       0.14906900     

