# B3LYP/6-31+G* OPT=(TS, CALCALL, NOEIGEN, maxcycles=100) Freq 

pp_1_0 TS

0 1
C    1.60979400       1.45699800      -2.21020900     
C    0.04163400       0.35749000      -1.18359600     
C    1.08331600      -0.53267300      -0.81739000     
O    0.92998700       2.63209800      -2.39003500     
O    1.24964900       3.61024900      -1.40366400     
O    2.23541800      -0.43628000      -1.18080700     
H    0.54768000       4.26642100      -1.51304300     
H    1.38648900       0.95709600      -3.15445000     
H    2.68212100       1.54801700      -2.09056500     
H    0.80198200      -1.45093800      -0.26327600     
H   -0.28245800       1.33041800      -0.87752900     
H   -0.74682600      -0.37483100      -1.34132400     

