# B3LYP/6-31+G* OPT=(TS, CALCALL, NOEIGEN, maxcycles=100) Freq 

pp_15_0 TS

0 1
C    1.18530200       1.49925900      -2.20389300     
C    0.95177100       0.72198000      -0.92511800     
C    1.18740400      -0.75692200      -1.08960800     
O    1.86424300       2.59528600      -2.01609800     
O   -0.02832600       3.00112700      -1.79086800     
O    1.74469900      -1.45550500      -0.29585100     
H    0.16006100       3.85265800      -1.40207800     
H    2.37017300       1.77640300      -3.07956500     
H    0.61451800       1.19120400      -3.07486400     
H    0.76833800      -1.17336300      -2.02771600     
H   -0.09785100       0.85719200      -0.65059700     
H    1.57542800       1.11795800      -0.12271000     

