# B3LYP/6-31+G* OPT=(TS, CALCALL, NOEIGEN, maxcycles=100) Freq 

pp_13_1 TS

0 1
C    1.47037000       1.33881600      -2.22689000     
C    0.58895200       0.42111100      -1.49326600     
C    1.03410100      -0.90088800      -1.22517000     
O    1.07859600       2.58795300      -2.53194200     
O    0.16325800       3.10625600      -1.58652100     
O    2.10802500      -1.36774000      -1.58176500     
H    0.19052100       4.06144400      -1.78198000     
H    2.35373800       1.74799100      -0.81308100     
H    2.19687600       1.00016400      -2.94371500     
H    0.31788800      -1.50111600      -0.61621700     
H   -0.48673900       0.59196800      -1.48586700     
H    0.97082600       1.79221900      -0.10142400     

