# B3LYP/6-31+G* OPT=(TS, CALCALL, NOEIGEN, maxcycles=100) Freq 

pp_25_0 TS

0 1
C    1.51160000       1.35142700      -2.74391900     
C    0.46530200       0.44012100      -2.07693700     
C    1.04336400       0.33866600      -0.68313500     
O    1.71976100       2.36273500      -1.79929700     
O    2.00556100       1.64216700      -0.62313600     
O    1.49147200      -0.56642000      -0.06770600     
H    1.30778700       2.18765500       0.54884300     
H    2.44159900       0.80258100      -2.93876500     
H    1.16280300       1.81744300      -3.66477000     
H    0.07221000       1.53653800       0.16640700     
H    0.39712000      -0.53125400      -2.56288300     
H   -0.51605400       0.91111600      -2.05975200     

