# B3LYP/6-31+G* OPT=(TS, CALCALL, NOEIGEN, maxcycles=100) Freq 

pp_22_1 TS

0 1
C    0.76473500       1.31955200      -2.68731100     
C    0.39216000       0.30190400      -1.59193700     
C    1.32672400       0.79850800      -0.48372900     
O    0.69089400       2.58950000      -2.06691300     
O    1.19321700       2.49684900      -0.80127100     
O    2.56344000       0.72059800      -0.66052400     
H    2.42292100       2.33655500      -0.70956400     
H    1.79372800       1.12634500      -3.02224400     
H    0.09349700       1.34506000      -3.54371900     
H    0.91535300       0.83664500       0.53817900     
H    0.61514700      -0.71608800      -1.89796000     
H   -0.64944500       0.38328600      -1.28351100     

