# B3LYP/6-31+G* OPT=(TS, CALCALL, NOEIGEN, maxcycles=100) Freq 

pp_2_0 TS

0 1
C    1.72078400       1.38624300      -2.29883900     
C    0.44159000       0.28930900      -0.84601700     
C    1.54678800      -0.40654800      -1.07750800     
O    0.87223800       2.48945300      -2.45307200     
O    0.84673600       3.26374000      -1.24807200     
O    2.61599300      -0.84415400      -1.03704900     
H    0.87873700       4.17237300      -1.56301600     
H    1.75929400       0.96131600      -3.30351700     
H    2.71728000       1.69488100      -1.96066200     
H    0.26774200      -1.21949200       0.02403300     
H    0.23810600       0.92442300      -0.00257900     
H   -0.41364300       0.24267600      -1.49792200     

