# B3LYP/6-31+G* OPT=(TS, CALCALL, NOEIGEN, maxcycles=100) Freq 

pp_20_0 TS

0 1
C    0.68537200       1.51259300      -2.41501000     
C    0.66500800       0.70429300      -1.12731900     
C    1.68126100       0.25722500      -0.26968300     
O    0.91414600       2.88149300      -2.20132400     
O    2.30130800       2.93569400      -1.80006400     
O    1.84828300      -0.11826200       0.79162400     
H    2.38072200       3.75723500      -1.30160800     
H    1.49404900       1.14314400      -3.06736100     
H   -0.26709600       1.44958900      -2.93489400     
H    1.37473500      -1.80683500      -1.46087700     
H    0.73155900      -0.41576100      -1.74471000     
H   -0.12875400       0.79684000      -0.37024600     

