# B3LYP/6-31+G* OPT=(TS, CALCALL, NOEIGEN, maxcycles=100) Freq 

pp_23_0 TS

0 1
C    0.75463800       1.49143000      -2.76676800     
C    0.51341600       0.70323100      -1.44883700     
C    1.56639100       0.86983000      -0.31062700     
O    1.00838800       2.87832900      -2.52586500     
O    1.10333600       2.99954400      -1.20964900     
O    1.68439500       1.76735100       0.52837000     
H    2.49749000       1.79292200      -1.28460200     
H    1.68677300       1.12553400      -3.23932200     
H   -0.06658100       1.38125500      -3.47829400     
H    1.85683600      -0.15957100       0.01655800     
H    0.55938600      -0.33879700      -1.75931800     
H   -0.46175300       0.90074400      -1.00623400     

