# B3LYP/6-31+G* OPT=(TS, CALCALL, NOEIGEN, maxcycles=100) Freq 

pp_21_1 TS

0 1
C    0.70015500       1.41599600      -2.52592600     
C    0.50678000       0.66346100      -1.22262700     
C    1.82504400      -0.05492000      -0.90244100     
O    0.54900400       2.70990600      -2.02537600     
O    1.87257500       2.29306500      -0.57179400     
O    2.43187300      -0.03836300       0.11922200     
H    1.57962800       3.19356200      -0.39749900     
H    1.67548200       1.28263300      -3.00752900     
H   -0.07904100       1.19356900      -3.27135000     
H    2.09748100      -0.73027200      -1.74600000     
H   -0.08859400      -0.25471800      -1.29387800     
H   -0.37664500       2.09923500      -1.36686700     

