# B3LYP/6-31+G* OPT=(TS, CALCALL, NOEIGEN, maxcycles=100) Freq 

pp_22_0 TS

0 1
C    1.20048800       1.28186800      -2.72992600     
C    0.07723400       0.91886300      -1.70601100     
C    0.81527200       0.38188500      -0.49175300     
O    2.38967100       1.20368400      -2.08686500     
O    1.65416900       2.46817200      -0.67659000     
O    1.90836400      -0.10852000      -0.53166600     
H    2.45327900       2.69541800      -0.19607900     
H    1.00217900       2.30377000      -3.09446900     
H    1.27431000       0.59249200      -3.58565200     
H    0.16572100       0.05016100       0.34207600     
H   -0.68317100       0.21707500      -2.04663000     
H   -0.40325000       1.85472600      -1.42823600     

