# B3LYP/6-31+G* OPT=(TS, CALCALL, NOEIGEN, maxcycles=100) Freq 

pp_21_0 TS

0 1
C    0.76255500       1.13265200      -2.58849000     
C    0.52067800       0.67501200      -1.16398100     
C    1.86533800       0.23152400      -0.56278500     
O    0.42817000       2.47647900      -2.42055000     
O    1.62564900       2.55528200      -0.80378800     
O    2.36367200       0.59013700       0.45517700     
H    1.21531300       3.42407400      -0.86267700     
H    1.78915000       1.01254400      -2.95197600     
H    0.08683400       0.65301000      -3.31328400     
H    2.30271800      -0.58425600      -1.18293100     
H   -0.49533800       1.91813500      -1.70564500     
H    0.03800000      -0.30169200      -1.05255500     

