# B3LYP/6-31+G* OPT=(TS, CALCALL, NOEIGEN, maxcycles=100) Freq 

pp_6_0 TS

0 1
C    1.77037200       1.89567400      -2.84752400     
C    0.18920200       0.68129500      -0.77606900     
C    1.14410400      -0.41895300      -0.70446700     
O    0.56104100       2.13863700      -2.43399100     
O    0.66569800       2.54183000      -1.09455800     
O    2.26485400      -0.52712500      -1.11382100     
H    1.41377400       3.67636700      -1.65554500     
H    2.65917500       1.65585800      -2.30008800     
H    1.80605400       1.65245500      -3.90645800     
H    0.68684800      -1.24879400      -0.10230900     
H   -0.76887300       0.42485200      -1.21300200     
H    0.02794600       1.03374900       0.24337000     

