# B3LYP/6-31+G* OPT=(TS, CALCALL, NOEIGEN, maxcycles=100) Freq 

pp_8_0 TS

0 1
C    1.78009000       1.08783400      -2.32415800     
C    0.96786900       0.72323100      -1.20063900     
C    1.13449000      -0.71696000      -0.80778300     
O   -0.05901500       2.81420400      -1.82384900     
O    0.98211200       3.56851700      -1.32502000     
O    0.34980100      -1.33070800      -0.14135900     
H    0.62192700       4.46748300      -1.29535600     
H    2.52043400       1.85856900      -2.33078300     
H    1.81121000       0.25504800      -3.01557000     
H    2.05395600      -1.19232000      -1.17826000     
H   -0.18602100       0.89156800      -1.03407200     
H    1.00314600       1.58353300      -0.50623300     

