# B3LYP/6-31+G* OPT=(TS, CALCALL, NOEIGEN, maxcycles=100) Freq 

pp_9_2 TS

0 1
C    0.76261100       1.38225300      -1.84316200     
C    0.36768900       0.33787600      -0.77649500     
C    1.45789100      -0.47361900      -1.46261900     
O    1.93398700       2.18905700      -1.95987400     
O    1.49173900       3.49506300      -2.40853100     
O    2.43048400      -1.02648300      -1.00156900     
H    2.34862500       3.92476900      -2.55786500     
H    0.48158300       1.78729600      -0.65196200     
H    0.40642400       1.28220500      -2.86687900     
H    1.04974600      -0.90147600      -2.39234900     
H    0.13996700      -0.35007400       0.05801300     
H   -0.36204100       0.79503800       0.04400100     

