# B3LYP/6-31+G* OPT=(TS, CALCALL, NOEIGEN, maxcycles=100) Freq 

pp_9_1 TS

0 1
C    1.96248500       1.22987300      -2.87153000     
C    1.06833200       0.82819200      -1.55820200     
C    0.38701300      -0.22555400      -0.71535100     
O    1.13250700       2.05685800      -0.78656000     
O    0.00103100       2.87452600      -1.06524100     
O    0.30742100      -0.17308800       0.48820000     
H   -0.24622800       3.21730400      -0.19469300     
H    1.54464300       2.11718800      -3.31439400     
H    2.33116000       0.43870900      -3.49994800     
H   -0.00253400      -1.08210400      -1.29746400     
H    0.50949300       0.59266100      -2.53002300     
H    2.34052600       0.73486000      -1.30607900     

