# B3LYP/6-31+G* OPT=(TS, CALCALL, NOEIGEN, maxcycles=100) Freq 

pp_9_3 TS

0 1
C    1.08003300       1.50813200      -1.26973100     
C    0.02192200       0.36054500      -1.14616900     
C    1.75376100      -0.38912300      -1.10356700     
O    1.60700500       1.92024000      -2.34740500     
O    1.43883300       3.59498500      -2.52439200     
O    1.69081600      -1.38998200      -0.45243000     
H    1.83088200       3.72491100      -3.38893200     
H    1.56115400       1.83906000      -0.34369300     
H   -0.33098400       1.49121900      -1.64793200     
H    2.51066200      -0.04338600      -1.77440300     
H   -0.34502200      -0.36833500      -1.85495100     
H   -0.63134000       0.51639900      -0.29523000     

