12
-20.977137968877287
C        1.182864       0.119011      -2.511801
C        0.452700       0.517531      -1.225715
C        1.389938       1.275901      -0.328425
O        1.590809       2.590158      -0.592853
O        0.854546       3.127093      -1.677927
O        2.003743       0.826569       0.595129
H        1.119880       4.058864      -1.655217
H        2.058253      -0.481777      -2.277020
H        1.498079       1.002183      -3.061550
H        0.518662      -0.463238      -3.144700
H       -0.408957       1.140747      -1.467259
H        0.128383      -0.373531      -0.688435
12
-20.977257440406902
C        1.182856       0.119005      -2.511807
C        0.452711       0.517553      -1.225714
C        1.389961       1.275911      -0.328432
O        1.590855       2.590172      -0.592872
O        0.854574       3.127111      -1.677912
O        2.003756       0.826586       0.595129
H        1.119794       4.058756      -1.655180
H        2.058240      -0.481797      -2.277033
H        1.498077       1.002164      -3.061572
H        0.518633      -0.463242      -3.144691
H       -0.408933       1.140788      -1.467259
H        0.128377      -0.373498      -0.688428
