12
-15.684921021178525
C        1.132647       0.087390      -2.524050
C        0.450236       0.473210      -1.192028
C        1.410709       1.259782      -0.372245
O        1.717239       2.495906      -0.827332
O        0.723760       3.088012      -1.645162
O        2.009299       0.921017       0.613152
H        0.907936       4.028832      -1.547016
H        2.116768      -0.372238      -2.407469
H        1.213376       0.971975      -3.138400
H        0.486769      -0.682567      -2.874612
H       -0.504168       0.985313      -1.365129
H        0.173566      -0.406353      -0.590951
12
-15.731747597887079
C        1.132442       0.087116      -2.524049
C        0.450215       0.473031      -1.192100
C        1.410382       1.259997      -0.372205
O        1.717292       2.496123      -0.827201
O        0.724096       3.088400      -1.645333
O        2.008685       0.920917       0.613230
H        0.908188       4.029262      -1.546945
H        2.116738      -0.371875      -2.406755
H        1.212819       0.971562      -3.138735
H        0.487136      -0.683435      -2.875092
H       -0.503973       0.985409      -1.365137
H        0.174106      -0.406862      -0.591458
