12
-23.466680312709286
C        1.176880       0.963845      -2.821848
C        0.124406       0.995226      -1.715259
C        1.067137       1.062501      -0.511645
O        2.229713       0.187357      -2.300009
O        1.380239       2.400949      -0.265706
O        2.188590       0.310480      -0.867373
H        2.172736       2.442928       0.280631
H        1.522160       1.981722      -3.048007
H        0.847244       0.464418      -3.732896
H        0.659947       0.588372       0.395661
H       -0.458175       0.076331      -1.690646
H       -0.521865       1.865360      -1.758601
12
-23.46682928973314
C        1.176877       0.963829      -2.821860
C        0.124390       0.995202      -1.715255
C        1.067120       1.062513      -0.511651
O        2.229712       0.187384      -2.300021
O        1.380205       2.400958      -0.265722
O        2.188591       0.310524      -0.867386
H        2.172861       2.442981       0.280705
H        1.522136       1.981713      -3.048034
H        0.847248       0.464384      -3.732906
H        0.659951       0.588379       0.395663
H       -0.458186       0.076291      -1.690633
H       -0.521894       1.865332      -1.758602
