12
-14.24044078629413
C        1.190895       1.134538      -2.777768
C        0.098048       1.015965      -1.711407
C        1.000289       0.865829      -0.511095
O        2.348987       0.525427      -2.253619
O        1.330977       2.347445      -0.254570
O        2.150964       0.241223      -0.831242
H        2.118932       2.442248       0.285942
H        1.351383       2.195718      -2.993252
H        0.999137       0.579594      -3.700824
H        0.544525       0.401026       0.363236
H       -0.547799       0.153884      -1.889279
H       -0.502848       1.911058      -1.587951
12
-14.722632475823048
C        1.191837       1.134803      -2.777421
C        0.097852       1.016703      -1.710966
C        1.000813       0.868282      -0.510518
O        2.349051       0.527403      -2.252968
O        1.328437       2.343546      -0.253246
O        2.151380       0.243654      -0.833983
H        2.117134       2.438506       0.286121
H        1.352036       2.195725      -2.994004
H        1.000545       0.578660      -3.700009
H        0.546225       0.403957       0.364228
H       -0.548334       0.154794      -1.888770
H       -0.502855       1.911912      -1.587604
