11
 energy: -17.580785640368 gnorm: 0.000803684148 xtb: 6.2.3 (830e466)
C         6.46915997951457    2.37571362464334    1.99937574088312
C         6.91502374248832    1.48310227023474    0.82945120831808
C         7.64779430957823    2.60722877384681    2.91259708566556
O         5.94855481150823    3.59427535208551    1.54904391641332
O         8.09432066845576    3.70060534955806    3.12952537512824
H         6.56375896374797    4.29113106602464    1.83316052414318
H         5.68856337170490    1.84899652377479    2.57064759223343
H         8.08564692007551    1.69272365577015    3.34737203293015
H         7.26353872508013    0.52176091861370    1.19588847273818
H         6.07200522803719    1.33058362052969    0.16212546471585
H         7.71271327980921    1.97035884491858    0.27392258683089
11
Properties=species:S:1:pos:R:3 energy:=T -17.517267489567=T gnorm:=T 0.000969338620=T xtb:=T 6.2.3=T (830e466)=T pbc="F F F"
C        7.17091557       2.96160966       1.12232747
C        6.98468908       1.56416984       0.60624216
C        7.82264678       3.03189250       2.51071722
O        6.86330051       3.95941728       0.52890093
O        7.99034682       4.04923522       3.11613519
H        5.58346600       2.30231584       3.59039189
H        5.06437823       1.84803418       3.95553729
H        8.14474431       2.04892356       2.90867790
H        6.37261718       0.99382479       1.30208922
H        6.51022797       1.58283669      -0.37039327
H        7.95374755       1.07422044       0.53248401
