11
 energy: -17.580787707352 gnorm: 0.000583680636 xtb: 6.2.3 (830e466)
C         6.58716736313100    2.08301861304396    2.11278268366705
C         7.00663835069428    1.70963974147806    0.68084681883820
C         7.73442605647163    2.80142236587778    2.77968655185340
O         5.43463093864617    2.87682073342497    2.12413228484069
O         7.65511980743085    3.93777188661827    3.15873547889511
H         5.70233234153241    3.76777010045837    2.40300918136594
H         6.38001644914094    1.15979149480163    2.67518624245155
H         8.66480602767670    2.21437852862093    2.86261372664331
H         6.17800654872710    1.20753887126377    0.19051025361513
H         7.24851991512293    2.60840374236719    0.11865098002847
H         7.86933620142602    1.04993392204506    0.69684579780114
11
Properties=species:S:1:pos:R:3 energy:=T -17.517444604838=T gnorm:=T 0.000651977036=T xtb:=T 6.2.3=T (830e466)=T pbc="F F F"
C        6.39896677       2.99648042       1.59942095
C        6.81827372       1.95372899       0.59970273
C        7.17628709       3.33273584       2.58645163
O        5.13953101       3.54080441       1.36970239
O        7.91198292       3.60710147       3.46069150
H        4.94237391       4.20664649       2.03527527
H        8.41680881       0.05451524       3.47193587
H        8.92121461       0.62507370       3.62821714
H        6.10282534       1.13331261       0.61024712
H        6.82545428       2.39098126      -0.39723055
H        7.80728153       1.57510955       0.83858596
