11
 energy: -17.576754220007 gnorm: 0.000919392546 xtb: 6.2.3 (830e466)
C         7.20761643497415    2.51744224162484    2.12035505236114
C         7.54807640853099    1.42816663772688    1.09808852899093
C         5.71001142639531    2.48231360032044    2.34364335890264
O         7.63070347790153    3.75413358694472    1.59250527728881
O         5.14262167301505    1.74439680835308    3.09626538808090
H         7.43670711135485    4.45958363331427    2.21856619692835
H         7.72124159420297    2.29584010676307    3.06910824805783
H         5.16301034972242    3.21061826110801    1.71220943915786
H         7.01196874644811    1.61533278701893    0.17101959650732
H         8.61472289619351    1.45624966236035    0.89339938620956
H         7.27427988126110    0.45229267446540    1.48799952751466
11
Properties=species:S:1:pos:R:3 energy:=T -17.540284064469=T gnorm:=T 0.000821049499=T xtb:=T 6.2.3=T (830e466)=T pbc="F F F"
C        7.22939446       0.97530065       2.50168700
C        7.89357865       0.05586396       1.80974367
C        6.92252701       2.28875955       1.94369815
O        6.02837433       5.48248169       0.84878547
O        6.31809853       3.15830187       2.52454699
H        6.09649433       4.75366236       1.48110312
H        6.88367751       0.79472855       3.51000129
H        7.29232706       2.44577560       0.91409972
H        5.44228552       6.12767098       1.24794575
H        8.23205515       0.24824770       0.80377806
H        8.12214745      -0.91442291       2.21777077
