11
 energy: -17.580788782132 gnorm: 0.000172925788 xtb: 6.2.3 (830e466)
C         6.54943749421004    2.12110677605342    2.08715216395245
C         7.00334350176533    1.71839564092606    0.67391805001590
C         7.72824883152090    2.70538490290790    2.82601156117411
O         5.48965163930186    3.03433901058804    2.04901975073238
O         7.74646804379890    3.83738056278100    3.22576355291831
H         5.83129942417208    3.88423522152269    2.37205382593320
H         6.21558236671996    1.21969627013046    2.62390937425409
H         8.58557964682153    2.02154569656966    2.94735595378177
H         6.15361821143811    1.31166856404695    0.13376937957436
H         7.36817722224514    2.59184463877147    0.13875131527087
H         7.78959361800617    0.97070271570236    0.72531507239253
11
Properties=species:S:1:pos:R:3 energy:=T -17.521912072588=T gnorm:=T 0.000935038066=T xtb:=T 6.2.3=T (830e466)=T pbc="F F F"
C        7.21732580       2.79177866       1.50883340
C        7.76889175       2.22496605       0.43122583
C        7.86369033       2.75840153       2.83289502
O        6.03318818       3.43789756       1.48296603
O        7.35393680       3.27835714       3.79757018
H        5.86295432       3.75319362       2.38976007
H        4.72937348       0.26095981       2.57355640
H        8.83202101       2.23765371       2.88179096
H        4.80301944       0.69186506       1.92945391
H        7.28267949       2.26018273      -0.52636677
H        8.71391939       1.72104416       0.50133496
