11
 energy: -17.580788305418 gnorm: 0.000509528781 xtb: 6.2.3 (830e466)
C         6.66175475328600    2.11680660624550    2.19570682942057
C         6.84423052961630    1.56423937742247    0.77226196747170
C         7.86373114857908    2.95772806843668    2.54834541229308
O         5.48530916966939    2.86583657603448    2.31223560745904
O         7.78329536931777    4.12774354013083    2.80459887252360
H         5.74676016190396    3.79103958721041    2.44965014387856
H         6.61113720669830    1.27237300345341    2.90068625438378
H         8.82786387607679    2.42197289639374    2.52859611342610
H         5.97141354628465    0.97407612838154    0.50927307650914
H         6.93388714975988    2.38455870036481    0.06421370058749
H         7.73151708880790    0.94002551592613    0.71762202204694
11
Properties=species:S:1:pos:R:3 energy:=T -17.504647914618=T gnorm:=T 0.000955114784=T xtb:=T 6.2.3=T (830e466)=T pbc="F F F"
C        6.51287920       2.13153855       2.06366375
C        6.87369391       1.44741072       0.76076894
C        7.55749020       3.04905641       2.68216235
O        5.67669579       3.29573187       1.88329707
O        6.66785020       4.15124949       2.45881312
H        7.76714862       2.90978060       3.74525624
H        6.03960715       1.43043637       2.76010269
H        8.48719531       3.16175564       2.11869693
H        5.98325495       1.01166130       0.31513061
H        7.29543400       2.16677205       0.06278019
H        7.59965067       0.66100701       0.95251809
