11
 energy: -17.580787621789 gnorm: 0.000996675195 xtb: 6.2.3 (830e466)
C         6.57741735905120    2.15805926283881    2.13841347855597
C         6.89856431729257    1.60246851962675    0.74089352684976
C         7.81947368429395    2.80114815711855    2.70378333889342
O         5.52210560460900    3.07637783305579    2.09941906363763
O         7.87352192167115    3.96666469029138    2.98888029856331
H         5.89286348094780    3.94842965585689    2.31265072604503
H         6.29075179666699    1.32205955315080    2.79540014864846
H         8.68505066752673    2.12571465354721    2.81196397191094
H         6.00090361873233    1.15449579685256    0.32520547767722
H         7.21874664143082    2.40878609570632    0.08547819870469
H         7.68159090777744    0.85209578195495    0.80102177051360
11
Properties=species:S:1:pos:R:3 energy:=T -17.579680932593=T gnorm:=T 0.000573396279=T xtb:=T 6.2.3=T (830e466)=T pbc="F F F"
C        5.93745157       1.89526692       1.63714531
C        7.43772489       1.93724763       1.31145546
C        8.22527041       2.69422578       2.33925404
O        5.35829709       3.16983139       1.66731897
O        7.75622836       3.35455880       3.22511566
H        5.78592536       3.66685623       2.37882133
H        5.79600720       1.37975062       2.59847838
H        9.32159130       2.61153148       2.20994042
H        5.40622508       1.33703135       0.86201658
H        7.59467835       2.44253127       0.35328140
H        7.84159038       0.92746852       1.22028244
