13
 energy: -23.800183684323 gnorm: 0.000402899686 xtb: 6.2.3 (830e466)
C        10.50700846392864    1.81040507328854    1.86019136195977
C         9.52352140484298    2.95570516410542    3.75895714425353
C         9.50853933738223    0.70598275323519    1.65152912700340
C         8.68330412956483    0.63772296127729    0.62152070558453
O        10.54998861358516    2.28577296520428    3.20475466478194
O         8.39436346590525    3.05526511383481    3.05138718466304
O         9.64081015814998    3.43830084520958    4.83865609158859
H         8.37520874307105    2.50191395142310    2.25464853596480
H        11.51807159381931    1.42358645256044    1.69553290220818
H        10.33689964252960    2.64228946230444    1.16327870894099
H         9.51713129198681   -0.05779912254594    2.41716285378007
H         8.00283494391174   -0.18580140422426    0.49516742063609
H         8.67191821132245    1.38885578432669   -0.15259670136542
13
Properties=species:S:1:pos:R:3 energy:=T -23.811434671151=T gnorm:=T 0.000672599608=T xtb:=T 6.2.3=T (830e466)=T pbc="F F F"
C       10.11314216       2.33434035       1.83646339
C        9.47429999       3.10769546       4.03158416
C        9.63633773       1.09936397       1.75212187
C        9.46354535       0.37735875       0.46078918
O       10.34443149       3.03969757       2.99962444
O        8.22909135       2.69021573       3.79831591
O        9.81708411       3.56221508       5.07348822
H        8.09088008       2.40293667       2.88057609
H       10.07099248      -0.52631480       0.45913210
H       10.43741338       2.89446623       0.96926060
H        9.37024633       0.54646712       2.64483139
H        8.42529314       0.07290170       0.33308713
H        9.75684241       1.00085616      -0.37908450
