13
 energy: -23.811006771352 gnorm: 0.000719970101 xtb: 6.2.3 (830e466)
C        10.47198565563941    1.57519815213411    2.10103018241161
C         8.98060255987014    3.14235494332148    3.06138973440279
C         9.61067265703946    0.51199718085468    1.48879300974906
C         9.10161034811600    0.59743739643703    0.27515748099326
O         9.84332396764062    2.13138776199712    3.26602058816215
O         8.45032958621050    3.53163579007401    4.21887281063933
O         8.72945100891613    3.63895981084221    2.00995690285496
H         8.79489313959042    2.99966861641561    4.95146102539798
H        11.41459772404468    1.15905438955092    2.46605021451081
H        10.66047855301675    2.37896348960923    1.38372786701523
H         9.40224522949545   -0.33397253411511    2.12934627350919
H         8.47745269908661   -0.17814774902937   -0.13402446320885
H         9.29205687133371    1.44787275190806   -0.35737162643781
13
Properties=species:S:1:pos:R:3 energy:=T -23.786937878666=T gnorm:=T 0.000766889625=T xtb:=T 6.2.3=T (830e466)=T pbc="F F F"
C       10.51305501       2.27738547       2.38762944
C        9.37390083       3.28947629       2.58454814
C        9.36708911       0.26444007       1.87250503
C        8.80192050       0.69867065       0.76077297
O       10.13435823       0.96987786       2.75960970
O        8.46208146       2.89604928       3.47189304
O        9.32576296       4.33828018       2.01412304
H        8.67266142       2.00396588       3.80194290
H       11.33042961       2.55870755       3.06011747
H       10.87603266       2.32218124       1.35594245
H        9.27060149      -0.75394898       2.22280772
H        8.22619018       0.02407332       0.15673498
H        8.87561652       1.71325119       0.41178311
