13
 energy: -23.800190930229 gnorm: 0.000898835783 xtb: 6.2.3 (830e466)
C        10.51814648299430    1.63747627494219    1.87884719128901
C         9.65337654577379    3.33410057992354    3.38257689986178
C         9.40607130949367    0.62714194778515    1.93121204305092
C         8.55071857539703    0.41478929526071    0.94623146529177
O        10.60425001571861    2.43996048126980    3.05582938717980
O         8.55322846443735    3.37310852314547    2.62560557371605
O         9.81123703391191    4.05785380795976    4.31236316784730
H         8.47351851224819    2.63490342556694    2.00172405226460
H        11.48209350270081    1.11888306138300    1.85394196032291
H        10.44197385013329    2.27200372606438    0.98547703366316
H         9.35241507468338    0.06526433493197    2.85369264323990
H         7.78370441892111   -0.33641947003298    1.01463987444118
H         8.59907621358660    0.96321401180012    0.01787870783170
13
Properties=species:S:1:pos:R:3 energy:=T -23.848070123021=T gnorm:=T 0.000352889518=T xtb:=T 6.2.3=T (830e466)=T pbc="F F F"
C       10.72702028       1.66146351       1.83317069
C        9.30650751       3.10884414       3.14826284
C        9.55670458       0.69034826       1.82141053
C        8.31074619       1.53562222       1.60733272
O       10.52733066       2.68595965       2.80071513
O        8.22075698       2.56498138       2.58601125
O        9.18554821       3.96456683       3.96993826
H        9.66926600      -0.04217048       1.02519444
H       11.66570821       1.17762511       2.11370664
H       10.84978437       2.12835624       0.84768875
H        9.49383111       0.17402094       2.78119627
H        7.39141009       0.95482770       1.71326201
H        8.32519581       1.99783450       0.61213046
