13
 energy: -23.800190942679 gnorm: 0.000895409436 xtb: 6.2.3 (830e466)
C        10.52221206899490    1.75900927761833    1.87533462757720
C         9.54999472973499    2.92319524880408    3.76927888473177
C         9.47938360644046    0.70353637275679    1.63303092827307
C         8.63815185307097    0.71308191881465    0.61364653010751
O        10.55722605302865    2.21452127004897    3.22735984595002
O         8.44832960289157    3.09631855177192    3.03360253586040
O         9.66138796621148    3.37506203362069    4.86319163119625
H         8.41640918098651    2.55228770266039    2.23139471286868
H        11.51825741902753    1.32961785728189    1.72610345464269
H        10.40270867841694    2.60657432446359    1.18693873918424
H         9.46460776129858   -0.09052447988423    2.36706305858530
H         7.92254101246192   -0.07587968931399    0.46282688024546
H         8.64851006743548    1.49548961135692   -0.12977182922272
13
Properties=species:S:1:pos:R:3 energy:=T -23.810258496234=T gnorm:=T 0.000453505424=T xtb:=T 6.2.3=T (830e466)=T pbc="F F F"
C        9.97766339       0.37675796       0.31524297
C        9.00787717       3.21311272       4.10191332
C        9.92533770       0.74819182       1.75479601
C        9.75981105       1.98596369       2.19257147
O        9.80524203       2.27971898       3.54532014
O        7.98099891       3.64431069       3.36228979
O        9.21432428       3.60763704       5.20264711
H        7.86432171       3.15184322       2.53595431
H       10.94387360      -0.06872930       0.08403353
H        9.82906521       1.24326457      -0.32350633
H       10.04541935      -0.04899292       2.47356370
H        9.21372448      -0.36655497       0.09218936
H        9.66206115       2.83576650       1.52298464
