13
 energy: -23.800191493194 gnorm: 0.000592463948 xtb: 6.2.3 (830e466)
C        10.38118228317391    2.05965523540789    1.61043656199665
C         9.64104664512418    2.95472771728537    3.74062513738291
C         9.67294468942120    0.73360449233129    1.60256170884609
C         8.62786790808665    0.45578942365078    0.84256132310829
O        10.63323928137510    2.55391342057150    2.92517701141693
O         8.38462953092717    2.76702831655951    3.32663456751730
O         9.89728373300651    3.46104836185399    4.78509447642735
H         8.30551751232930    2.20731896669993    2.53846545636206
H        11.38387455632059    1.94101838002130    1.18698999809254
H         9.83931175056803    2.80729130827967    1.01548336403476
H        10.08920117641058   -0.00229368356197    2.27692694516973
H         8.16545678096237   -0.51546687695014    0.84943372322106
H         8.20814415229441    1.17865493785089    0.16001972642423
13
Properties=species:S:1:pos:R:3 energy:=T -23.724930847989=T gnorm:=T 0.000632013582=T xtb:=T 6.2.3=T (830e466)=T pbc="F F F"
C        9.93489158       2.68781126       1.24749912
C        9.62066687       2.92588778       3.64875683
C        9.09671588       1.74405838       0.92491501
C        8.28821106       0.80997515       0.52540458
O       10.19914139       3.25792079       2.47121656
O        8.70876598       1.96133154       3.64482514
O        9.94660662       3.50744117       4.63332898
H        8.55369045       1.57249498       2.76299807
H       11.24683237       0.10368262       2.51874337
H       10.55975583       3.15525448       0.49607169
H       11.20450979       0.07418635       3.29522578
H        8.58554515      -0.22762149       0.49647376
H        7.28436704       1.02986698       0.19495111
