13
 energy: -23.810071091821 gnorm: 0.000725572398 xtb: 6.2.3 (830e466)
C        10.70303362276917    1.73487987722344    2.02663580592630
C         8.99775485488406    3.25651344672464    2.67447565553198
C         9.93918498853920    0.54349292085554    1.52561487309695
C         8.78791154953911    0.59183052602710    0.88458939586574
O        10.00841354301829    2.96946220813422    1.87467433064663
O         8.79878082214385    2.35686662508671    3.65817493224774
O         8.33091243425404    4.23956660906086    2.54474546536201
H         8.05274794192986    2.63641148489656    4.20670357766297
H        10.97658519315092    1.58369319959053    3.07751492181847
H        11.61841429347128    1.86326188433690    1.43997565069670
H        10.43021526188546   -0.39739908514933    1.73226887574715
H         8.29432424224640    1.52483316029257    0.66691150398316
H         8.29142125216837   -0.30111285707971    0.54802501141421
13
Properties=species:S:1:pos:R:3 energy:=T -23.798721550939=T gnorm:=T 0.000843924154=T xtb:=T 6.2.3=T (830e466)=T pbc="F F F"
C       11.60943365       1.64013009       1.93910410
C        9.56964037       2.54044584       2.32908806
C       10.56092249       0.61504967       1.65398285
C        9.36438230       1.14624728       1.88416612
O       10.89566782       2.78928958       2.34618448
O        6.28952014       1.94421464       2.28577309
O        8.74427085       3.36129801       2.63548150
H        7.02102486       2.55500787       2.46297788
H       12.28713869       1.33503086       2.74452353
H       12.21100537       1.88527671       1.05660012
H       10.80769267      -0.37456657       1.31934185
H        5.48331487       2.44785812       2.41221548
H        8.38568593       0.71701791       1.79087093
