13
 energy: -23.810997132876 gnorm: 0.000409205864 xtb: 6.2.3 (830e466)
C        10.01480238769750    1.39025254841383    2.79558995717584
C         8.99945894076654    3.48282553138874    2.35404849193216
C         9.48608731902061    0.41914659194224    1.78365191946751
C        10.07228544187021    0.17445874606615    0.62807238158774
O         9.02750109264561    2.37892232344335    3.12173569829580
O         8.00787999643966    4.28283972847823    2.74149401491470
O         9.75101080093109    3.73102414865029    1.46604137528205
H         7.51971607627173    3.89173400528508    3.48093153779168
H        10.91012094238376    1.89291140316310    2.41902797642024
H        10.23047242014213    0.88747925680510    3.74270932747612
H         8.56008938980797   -0.06693633196122    2.06032399119105
H        10.98594405103609    0.66800848132771    0.34235376692503
H         9.66433114098711   -0.53015643300258   -0.07598043845984
13
Properties=species:S:1:pos:R:3 energy:=T -23.781188104609=T gnorm:=T 0.000531991707=T xtb:=T 6.2.3=T (830e466)=T pbc="F F F"
C       10.74677339       1.08762261       2.49572640
C        8.60578139       3.19095280       2.23427487
C        9.43690336       0.90475592       1.80468915
C        8.48109562       1.82844006       1.68461474
O       11.54619661      -0.06870937       2.47688115
O        7.53507253       3.99140333       2.04757510
O        9.57545969       3.60513068       2.81288496
H        6.81806380       3.55081982       1.57359058
H       11.27405335       1.95243599       2.06721183
H       10.57716219       1.32363251       3.55102249
H        9.27802101      -0.08006407       1.38145082
H       11.79166933      -0.27282386       1.56793143
H        7.56344773       1.58891357       1.16214649
