13
 energy: -23.800190704416 gnorm: 0.000987613930 xtb: 6.2.3 (830e466)
C        10.47405616994542    1.97500781684996    1.78452132289069
C         9.33606350193040    3.16699177193743    3.56546275289426
C         9.71519793059439    0.67717498162100    1.79067931582019
C         8.84979154962632    0.32025097647295    0.85760635431913
O        10.46035743547914    2.64005055192529    3.04707484415321
O         8.19158496950105    2.95106465452591    2.91097101550768
O         9.38465922743224    3.80400114445568    4.56805800899227
H         8.25697135350262    2.29232421680969    2.20220382696244
H        10.11486698457359    2.64593927908526    0.99244242851505
H        11.53706737203455    1.77590112417865    1.61385771540343
H         9.93320671137530    0.03307092068478    2.63163234351739
H         8.34594130951189   -0.62979534124001    0.88647536709495
H         8.63013548449310    0.95052790269339    0.00931470392926
13
Properties=species:S:1:pos:R:3 energy:=T -23.778270251869=T gnorm:=T 0.000794206306=T xtb:=T 6.2.3=T (830e466)=T pbc="F F F"
C       10.19057084       2.92057954       1.49245227
C        9.63316721       1.64844938       3.49864150
C        9.43941616       0.40194899       2.71647811
C        8.68581179       0.26795561       1.63553189
O        9.96601562       2.80785542       2.87761186
O        9.03034476       3.20764944       0.79223273
O        9.52345203       1.66332481       4.69411892
H        8.64337699       4.02278336       1.13611476
H       10.59077252       1.99174439       1.07093507
H       10.93057416       3.72869469       1.39473033
H        9.87672857      -0.46084955       3.20278800
H        8.52674331      -0.69894232       1.18611694
H        8.19292604       1.10131622       1.16254760
