13
 energy: -23.800190932212 gnorm: 0.000896897991 xtb: 6.2.3 (830e466)
C        10.48880070418292    1.84470400213772    1.75930102330704
C         9.54272013222345    3.21411246297735    3.52486441864330
C         9.57927947262902    0.64905010584435    1.81771192989344
C         8.65659749607347    0.37481463390412    0.91197373923472
O        10.58327136600023    2.54018663990759    3.00190476716051
O         8.36645156177299    3.12114543407910    2.89828494886726
O         9.68996195506664    3.86775940003472    4.50685460350734
H         8.33608035396490    2.43995186559150    2.20866036790912
H        11.51600794616779    1.51374436193598    1.57473849460886
H        10.19577103127066    2.53276505837278    0.95478679975709
H         9.73668831743104    0.00599082007640    2.67284477896612
H         8.04251412282832   -0.50599569349305    0.97815564923963
H         8.49555554038858    1.00427090863150    0.05011847890554
13
Properties=species:S:1:pos:R:3 energy:=T -23.794369396877=T gnorm:=T 0.000511748841=T xtb:=T 6.2.3=T (830e466)=T pbc="F F F"
C       10.87611856       2.63937465       1.55594026
C        9.37663141       2.74558498       3.44727461
C        8.77830939       0.79070232       2.24053518
C        8.04965276       0.21970867       1.30060641
O       10.60059498       2.87387723       2.93129860
O        8.46483693       2.03965604       2.73272933
O        9.08803928       3.25856632       4.48055763
H       10.00335036       2.83859017       0.93150228
H       11.21928279       1.61505448       1.39397570
H       11.67617641       3.33210391       1.29729024
H        9.61760701       0.29974642       2.71881741
H        8.26829022      -0.77729305       0.96965196
H        7.21080989       0.72682784       0.86002039
