10
 energy: -13.516890938908 gnorm: 0.000963514091 xtb: 6.2.3 (830e466)
C        -1.86059425910159   -0.19996511740012   -0.61733799885725
C        -1.32774812079642    1.15796768390003   -0.49020273712820
C        -1.97480579168167   -1.11476686591672    0.57478635964799
O        -0.58244235590714    0.13038458017718   -1.07660564946248
H        -2.58623437559475   -0.38317860551109   -1.40861268663447
H        -1.66418756831865    1.93854379198677   -1.16334413408515
H        -0.97301841234175    1.49964248404343    0.47640143127585
H        -1.85806784945179   -2.15055469925030    0.26373710982798
H        -2.95189775162722   -0.99541700104638    1.03815984811813
H        -1.20151351517902   -0.88196625098279    1.30259845729759
10
Properties=species:S:1:pos:R:3 energy:=T -13.516076006675=T gnorm:=T 0.000162435778=T xtb:=T 6.2.3=T (830e466)=T pbc="F F F"
C       -1.92968049      -0.20411785      -0.38406299
C       -1.11271523       0.83467347      -0.31143630
C       -2.08299203      -1.22158940       0.69753263
O       -0.94025283       1.78408954      -1.26830960
H       -2.53739783      -0.35298304      -1.26879458
H       -1.50978246       1.58853221      -2.02280790
H       -0.48630993       1.02843137       0.54678759
H       -1.82969882      -2.21408128       0.32505244
H       -3.11508814      -1.25361454       1.04637496
H       -1.43659224      -0.98865048       1.53924375
