10
 energy: -13.516890954645 gnorm: 0.000962239284 xtb: 6.2.3 (830e466)
C        -1.80939526681112   -0.29050518388418   -0.60510206606239
C        -1.58047901268634    1.15547307078063   -0.63363211184268
C        -1.79109808356472   -1.06425672254931    0.68797219481254
O        -0.60680775791648    0.25082632434441   -1.06821125180800
H        -2.43832938437474   -0.71537980008278   -1.38622865341775
H        -2.03763310462153    1.76247006295716   -1.40705045702522
H        -1.35604604030778    1.67478225642022    0.29202684332305
H        -1.44379564487614   -2.07979878954209    0.51108138043573
H        -2.79423424622683   -1.10437141868591    1.10722811236388
H        -1.12270145861431   -0.58843979975813    1.40122600922084
10
Properties=species:S:1:pos:R:3 energy:=T -13.513544136823=T gnorm:=T 0.000560402280=T xtb:=T 6.2.3=T (830e466)=T pbc="F F F"
C       -1.66968492       0.05172293      -0.47571297
C       -1.69727388       1.36961779      -0.33171717
C       -1.75423691      -0.90043997       0.68591172
O       -1.55992732      -0.48962267      -1.72678662
H       -1.55299180      -1.45159635      -1.67199273
H       -1.63466195       2.02012082      -1.18343255
H       -1.78277519       1.81738536       0.63958022
H       -1.71454423      -1.93810830       0.35589309
H       -2.68408321      -0.74964316       1.23134556
H       -0.93034059      -0.72863644       1.37622146
