10
 energy: -13.516892910727 gnorm: 0.000345565187 xtb: 6.2.3 (830e466)
C        -1.91153930486892    0.29426655427508    0.19510277215860
C        -1.35961681177272    0.82875931852841   -1.05153256824880
C        -1.91136298459423   -1.18465376582172    0.48398132076255
O        -0.68376086676002    0.96244780916372    0.16609477516763
H        -2.71463117470960    0.85516148472903    0.67076257040680
H        -0.90663976737769    0.14933884376943   -1.76464751351832
H        -1.75710641809510    1.74548122344359   -1.47249923807202
H        -1.06390194585271   -1.66174353008485   -0.00172213899994
H        -2.83319250759495   -1.63174462440085    0.11837098830688
H        -1.83884821837408   -1.35642331360185    1.55548903203662
10
Properties=species:S:1:pos:R:3 energy:=T -13.498323362398=T gnorm:=T 0.000960425131=T xtb:=T 6.2.3=T (830e466)=T pbc="F F F"
C       -2.45957689      -0.01440737      -0.14687142
C       -1.23691003       0.63880552      -0.72352377
C       -2.45281328      -0.92068921       0.81196394
O       -0.01506578       0.13799635      -0.24657209
H       -3.38656858       0.31940616      -0.59350032
H       -1.28225710       0.56260925      -1.82331193
H       -1.24031178       1.70395038      -0.46845081
H       -0.00789603      -0.81781328      -0.37338497
H       -3.36165309      -1.36079253       1.18408533
H       -1.53754744      -1.24817527       1.27896605
