10
 energy: -13.516890941261 gnorm: 0.000963437174 xtb: 6.2.3 (830e466)
C        -1.79566953916980   -0.26634161415121   -0.61659136013078
C        -1.58228086286149    1.18143767046615   -0.56688680089397
C        -1.79898103088623   -1.10423513546433    0.63600217679645
O        -0.58869441496162    0.30964715066011   -1.02300650825989
H        -2.40139629951816   -0.65743553679909   -1.43291051885217
H        -2.02796836722831    1.82216673411272   -1.31950873456466
H        -1.38534876555105    1.65550811126885    0.38881864106191
H        -1.43630537002442   -2.10602118918935    0.41662513001276
H        -2.81114052836492   -1.17550120064189    1.02858555174088
H        -1.15281482143400   -0.65842499026195    1.38807242308948
10
Properties=species:S:1:pos:R:3 energy:=T -13.502287215276=T gnorm:=T 0.000534470321=T xtb:=T 6.2.3=T (830e466)=T pbc="F F F"
C       -1.92132107       0.42710378      -0.55956212
C       -1.60283591       1.61389714      -1.04999180
C       -1.55954131      -1.48663977       0.78737937
O       -1.13124948      -0.22876645       0.32520397
H       -2.83835833      -0.08091386      -0.84557255
H       -2.24759889       2.11003040      -1.74917985
H       -0.69398967       2.10918280      -0.76171626
H       -0.80609085      -2.23548982       0.52808138
H       -2.51764401      -1.77857350       0.34915634
H       -1.66197048      -1.44903072       1.87540150
