12
 energy: -21.242470024693 gnorm: 0.000983604132 xtb: 6.2.3 (830e466)
C        -0.44383520138243    0.14705245758112   -0.18807623577439
N         0.89082356981684    0.15991304471313   -0.68246423810146
O        -0.64440801420037   -0.97819297988073    0.65495514531389
O        -0.73630843595329    1.31317830410860    0.50208568473226
H        -1.48399971013409   -0.86502376791645    1.11536987249485
H         0.03955840746267    1.57903556443687    1.01093971708934
H        -1.14778384971228    0.10806884757684   -1.03227914220021
H         1.54063080686014   -0.03297215120854    0.07387778710138
H         1.02299050276801   -0.54668214405314   -1.39556746658646
C         0.25317064275146   -3.23641550438976   -0.79437763739836
N         0.71781426357186   -2.79809426979101   -1.73651801608777
H        -0.17555298184649   -3.63895740118035    0.08364452941747
12
Properties=species:S:1:pos:R:3 energy:=T -21.220887537115=T gnorm:=T 0.000844416373=T xtb:=T 6.2.3=T (830e466)=T pbc="F F F"
C       -0.27414284      -0.11489490      -0.31874928
N        1.14871083      -0.05773701      -0.09203208
O       -0.84240852      -0.64107910       0.84704371
O       -0.76698083       1.15342043      -0.60943049
H       -1.79583691      -0.49445459       0.83147484
H       -0.32395101       1.78803240      -0.03088566
H        0.31665022      -3.22568906       0.93847783
H        1.44536425      -0.83192150       0.48792608
H        1.66856017      -0.05499621      -0.96074314
C       -0.59695513      -0.98352690      -1.47413436
N       -0.76220796      -1.70121702      -2.34754874
H        0.61629774      -3.62502656       0.34019129
