9
 energy: -16.137464768931 gnorm: 0.000665793659 xtb: 6.2.3 (830e466)
C        -4.38948012407535    2.71254220277860   -0.92031633446859
O        -5.04323519735475    3.63718111874342   -1.64443718530170
N        -3.27165694139767    2.87834508901810   -0.38898340258942
H        -5.89368010119270    3.32668868921428   -1.97397289992449
H        -2.86376180091027    3.79729241374137   -0.54197487338960
H        -4.87956770265744    1.74899754033443   -0.79346613125430
C        -2.00344804740356    0.53768202665843    1.20681345783012
N        -1.58959058625246   -0.36436571357917    1.76766516993191
H        -2.39167949876086    1.37663663309169    0.67977219916799
9
Properties=species:S:1:pos:R:3 energy:=T -16.151135691556=T gnorm:=T 0.000831004232=T xtb:=T 6.2.3=T (830e466)=T pbc="F F F"
C       -4.45737731       2.90781730      -1.03255181
O       -5.41379745       1.98194748      -1.19695787
N       -3.37638349       2.77468013      -0.39872717
H       -6.15417808       2.30687312      -1.72024660
H       -1.32571466       2.27859964       0.89746140
H       -4.61410250       3.88276021      -1.48813598
C       -2.04131974       1.45901080       0.82097615
N       -3.13497848       1.53453008       0.20310873
H       -1.80824830       0.52478124       1.30617315
