9
 energy: -16.141014628787 gnorm: 0.000470823896 xtb: 6.2.3 (830e466)
C        -4.60233162909002    2.67602678819090   -0.83799624308084
O        -5.86512465035683    2.70005950253306   -1.26508704421864
N        -4.02487170528622    1.84267893800240   -0.10571337865217
H        -6.37311849581067    1.94245952604716   -0.93602966438454
H        -4.59579924594741    1.06323887873253    0.21884590944916
H        -4.04132676436538    3.52526899853254   -1.21257424609441
C        -0.96601570865907    1.96603340729668    0.50509485794929
N         0.15418054007609    1.98694851693991    0.71469425801230
H        -2.01180234056097    1.94807544372330    0.30997555102066
9
Properties=species:S:1:pos:R:3 energy:=T -16.149608346261=T gnorm:=T 0.000598656156=T xtb:=T 6.2.3=T (830e466)=T pbc="F F F"
C       -4.25583495       3.42909095      -0.15017740
O       -2.99650080       0.37005048      -0.54250887
N       -4.78451084       2.30898574      -0.34129758
H       -3.76727984       1.01142621      -0.48696610
H       -5.80149011       2.28468695      -0.38822851
H       -3.17422167       3.47938425      -0.09598555
C       -1.88678733       0.94969381      -0.36318076
N       -0.86682944       1.44665464      -0.20611877
H       -4.79275502       4.37081697      -0.03432646
