12
 energy: -21.240523088529 gnorm: 0.000985060770 xtb: 6.2.3 (830e466)
C        -0.22698472873047   -0.45567941026662    0.50939079399450
N         0.97639006025993    0.20320832327292    0.09773472755427
O        -0.70497536949789    0.23662495315965    1.62130576544461
O        -1.14644164892771   -0.44770963970496   -0.53696187600132
H        -1.61991664857119   -0.02103296048894    1.77968681390203
H        -1.11631707410718    0.43439693041013   -0.93391950107199
H        -0.10156647736992   -1.53249305776651    0.76005940140232
H         1.50665617507488    0.49587653799609    0.90754555941107
H         1.54240962081315   -0.40466399268828   -0.48281415604859
C         0.21530650637350   -2.43869395341839   -2.04338258075530
N         1.32925690267862   -2.28437713382131   -1.86555759575411
H        -0.82082731799731   -2.57455659668378   -2.20137735207987
12
Properties=species:S:1:pos:R:3 energy:=T -21.284427074777=T gnorm:=T 0.000674460650=T xtb:=T 6.2.3=T (830e466)=T pbc="F F F"
C       -0.12551361      -0.27876561      -0.13588937
N        1.09648957       0.47325608      -0.01856742
O       -0.50388276      -0.67709782       1.14651591
O       -1.11589506       0.52498502      -0.69375143
H       -1.46643252      -0.65299860       1.19341215
H       -0.80742411       1.43851816      -0.66606459
H       -0.53976809      -2.87965999       0.21035564
H        1.64323774       0.12159127       0.75712870
H        1.63096441       0.38251047      -0.87496929
C       -0.14251708      -2.55606620      -0.75380168
N        0.08906830      -1.36720871      -1.06454255
H        0.07466322      -3.31816406      -1.48811607
