12
 energy: -21.243900524202 gnorm: 0.000635036751 xtb: 6.2.3 (830e466)
C         0.01083034499172   -0.01562473893923    0.56095169611569
N         0.85149498000207   -0.63496803540301   -0.42350940493142
O        -1.31891199111124   -0.05862983435030    0.17985166997338
O         0.44228346431107    1.30768320064440    0.76707305986201
H        -1.41716476702451    0.33621881679578   -0.69683704856160
H        -0.13406959857785    1.74393800296057    1.40364345475448
H         0.06554677967545   -0.59742362790346    1.49407217740942
H         1.78558582743130   -0.76906275778267   -0.05519148073968
H         0.92901727059008   -0.02364620061836   -1.23282906189551
C        -0.44973336463053   -3.34045528328365   -1.44804092047224
N        -0.90838153440929   -4.26362636707614   -1.93377278989773
H        -0.02340741124741   -2.47369317504384   -1.00380135161697
12
Properties=species:S:1:pos:R:3 energy:=T -21.264239370185=T gnorm:=T 0.000294779466=T xtb:=T 6.2.3=T (830e466)=T pbc="F F F"
C        0.68618680      -0.58196843       0.31758893
N        1.87303736       0.19313081       0.05914041
O       -2.54230803      -1.23724331      -0.76738220
O       -0.44995400       0.22560140       0.09562320
H       -1.88822936      -0.58449649      -0.43321677
H       -0.28366475       1.08306519       0.50739738
H        0.71302410      -0.91099515       1.36669429
H        2.70239286      -0.28896390       0.37994786
H        1.97356692       0.38006092      -0.93302183
C       -1.98464656      -2.31019390      -1.15000176
N       -1.51687228      -3.29344168      -1.50184572
H        0.55055693      -1.46384545      -0.32931379
