12
 energy: -21.235863463582 gnorm: 0.000253417023 xtb: 6.2.3 (830e466)
C         0.29357658761385    0.00755121042793    0.41560514376303
N         1.68221489268443    0.00946282300942    0.73555018091347
O        -0.21241014206421   -1.25516357534837    0.72720578516714
O         0.11146995040912    0.30998363108120   -0.95015538750935
H        -1.15245162150071   -1.20068762274789    0.92588735016011
H        -0.79778583237643    0.13582725884037   -1.22390634390182
H        -0.20271300980650    0.78622345486937    1.02763436536195
H         2.12015407185077   -0.79827380377259    0.30584899873748
H         2.11247098665809    0.84546222705085    0.35927449647092
C        -1.35523479106622   -2.56311527050667   -1.56888290312553
N        -2.14800758122579   -1.75890386099525   -1.71575936701057
H        -0.61827351117967   -3.30767647189792   -1.42640231902482
12
Properties=species:S:1:pos:R:3 energy:=T -21.272043650659=T gnorm:=T 0.000914802480=T xtb:=T 6.2.3=T (830e466)=T pbc="F F F"
C       -0.23611336       0.37300184       0.48308753
N        0.62578576      -0.74569698       0.18651053
O       -1.44178646      -0.07474757       0.95371279
O       -0.38551005       1.16370483      -0.67512963
H       -1.60322834      -0.93396432       0.52350434
H       -1.31397798       1.41164496      -0.75476861
H        0.24861346       0.98225179       1.26391111
H        1.68903611      -2.57295338      -1.30474717
H        1.55865195      -0.50192367      -0.14069740
C        0.62469580      -2.63424933      -1.07944571
N       -0.00191808      -1.78086392      -0.39291794
H        0.06876121      -3.47551426      -1.45111982
