12
 energy: -21.244392358260 gnorm: 0.000659756172 xtb: 6.2.3 (830e466)
C         0.24913350515575   -0.10681036520899    0.69502267511134
N         1.39743274326726   -0.00487098499504   -0.14177593463922
O        -0.16446333294307   -1.46924773481166    0.78455811814359
O        -0.78295905184498    0.68803253870809    0.24982765971925
H        -0.96374722317407   -1.51057264455435    1.32149459072519
H        -0.91425391293514    0.53798823481984   -0.69977797347546
H         0.50862384868149    0.26046159344004    1.70038501592910
H         2.16168768982461   -0.55358849971011    0.22982499843022
H         1.18200015114309   -0.34068906703780   -1.07547639151668
C        -0.94687754052525   -2.12163401610897   -1.80653584368078
N        -0.99539791151295   -1.05867182436913   -2.21262801346791
H        -0.89797896513440   -3.10970723017299   -1.43321890128270
12
Properties=species:S:1:pos:R:3 energy:=T -21.242038024469=T gnorm:=T 0.000912421125=T xtb:=T 6.2.3=T (830e466)=T pbc="F F F"
C       -0.30756635       0.32800494      -0.23379877
N        1.05869033      -0.11941531      -0.03988289
O        0.20782984      -2.96111599       0.59261553
O       -0.33195194       1.58203412      -0.85565711
H        0.05888512      -3.71482846       1.16824718
H        0.32859039       2.13440095      -0.42177057
H       -0.79072594       0.36868679       0.76242881
H        1.07738610      -1.01543741       0.43723040
H        1.52042785      -0.22983800      -0.93837305
C       -1.06280037      -0.62598952      -1.04633369
N       -1.55172188      -1.46833987      -1.64654535
H       -0.37384315      -3.06747225      -0.16646049
