12
 energy: -21.242379176126 gnorm: 0.000616225712 xtb: 6.2.3 (830e466)
C         0.16016919541129    0.30672362746396    0.37254683602680
N         0.92537350953543   -0.08978971657417   -0.76092708921584
O        -0.63059579429694   -0.77929952113481    0.83501148840906
O        -0.64380159929589    1.39398220068929    0.08220238170151
H        -1.23680077915422   -0.45469689970392    1.51089153196422
H        -1.01555179888862    1.28793314937972   -0.80279043427917
H         0.83884131423579    0.63526612127854    1.17413582745403
H         0.33820669010070   -0.55274821309795   -1.44784350831093
H         1.67521282671544   -0.71905316391845   -0.50942776335964
C        -0.20296487533892   -3.27542848228662   -0.92007245409645
N         0.14301055042665   -3.64360287615289   -1.94084794943444
H        -0.51810923945219   -2.89839622594154    0.01893113314240
12
Properties=species:S:1:pos:R:3 energy:=T -21.268394885939=T gnorm:=T 0.000504761994=T xtb:=T 6.2.3=T (830e466)=T pbc="F F F"
C       -0.19965985      -0.12251995       1.19163649
N        0.95883462      -1.26353783      -2.08923248
O       -1.41750759      -0.76654940       1.22713854
O        0.02632137       0.56995718      -0.01546388
H       -1.42500557      -1.50475933       0.58940308
H       -0.73773638       1.13824189      -0.17573619
H       -0.19710775       0.58099532       2.03635804
H        1.82596384      -1.71057785      -2.34666827
H        1.03649701      -0.32170785      -1.72089994
C        0.07214414      -1.99154948      -1.45191462
N       -0.75864896      -2.58311873      -0.92317433
H        0.64889512      -0.81398398       1.29036353
