12
 energy: -21.567090787285 gnorm: 0.000552503953 xtb: 6.2.3 (830e466)
C         1.03816497598564    1.10810639297098   -2.52568604090336
C         0.39319339968400    0.48381105939174   -1.28501245795522
C         1.41943414355570    0.02202598807910   -0.28795931664831
O         1.81535208696610    2.23812429317732   -2.23276856169158
O         0.95963959250710    3.30788175588097   -1.82546565385039
O         1.32021037570164    0.11621294125921    0.90072232697705
H         1.57386242710465    3.90362485156973   -1.37799337735787
H         1.76114840444399    0.42589297530747   -2.98130867594539
H         0.26515170985897    1.36665103373508   -3.25945415327087
H         2.31088946414647   -0.44282811755059   -0.75524435381496
H        -0.18663143641852   -0.38919384827165   -1.59401714582355
H        -0.28151514353551    1.19920067445062   -0.81158258971574
12
Properties=species:S:1:pos:R:3 0.000954426772=T gnorm:=T pbc="F F F" -21.600520030025=T energy:=T xtb:=T 6.2.3=T 830e466=T
C       1.18286403       0.11901127      -2.51180123 
C       0.45270032       0.51753074      -1.22571461 
C       1.38993780       1.27590057      -0.32842492 
O       1.59080889       2.59015791      -0.59285257 
O       0.85454619       3.12709273      -1.67792651 
O       2.00374349       0.82656925       0.59512930 
H       1.11987971       4.05886374      -1.65521652 
H       2.05825267      -0.48177689      -2.27702007 
H       1.49807919       1.00218329      -3.06154953 
H       0.51866176      -0.46323822      -3.14469952 
H      -0.40895726       1.14074673      -1.46725887 
H       0.12838321      -0.37353113      -0.68843496 
