12
 energy: -21.566581716965 gnorm: 0.000841841344 xtb: 6.2.3 (830e466)
C         1.32233304744122    1.31740252007932   -2.22848695340388
C         0.70264713996823    0.68792823501687   -0.97724202302221
C         1.26036911777149   -0.67168144893874   -0.68083679310428
O         0.64530593184226    2.46881227397391   -2.65234908029707
O         0.84765393372639    3.51649217743824   -1.70135447489161
O         1.48616385948996   -1.10564472923035    0.41135879159952
H         0.61135329380481    4.30361686394937   -2.20970725396156
H         2.38080595707556    1.54660754772248   -2.05270725870265
H         1.23123530051735    0.64921670276572   -3.08984256325487
H         1.44060622281516   -1.28401404898782   -1.58826247508555
H        -0.37169427648338    0.56451906787214   -1.14932398907474
H         0.83223047203085    1.34644483833883   -0.11705592680114
12
Properties=species:S:1:pos:R:3 6.2.3=T gnorm:=T 0.000886403806=T pbc="F F F" -21.667291102852=T energy:=T xtb:=T 830e466=T
C       1.24909287       1.19326447      -2.22798549 
C       0.23138929       1.98140405      -1.38818298 
C       1.62642192      -0.79280064      -1.04141449 
O       1.05270249      -0.21347693      -2.08195394 
O       0.37053172       3.36437236      -1.56536849 
O       2.30769049      -0.26498598      -0.21368612 
H       1.21962952       3.64773774      -1.20630550 
H       2.26864602       1.44850902      -1.91503221 
H       1.11683451       1.41158846      -3.28898594 
H       1.38530811      -1.86841472      -1.06027220 
H      -0.78164647       1.73306564      -1.71448248 
H       0.34240952       1.69943654      -0.33214016 
