12
 energy: -21.569102171864 gnorm: 0.000451672998 xtb: 6.2.3 (830e466)
C         0.57876569479984    1.47280915016985   -2.50727592187737
C         0.29902699842333    0.41989804465127   -1.42798448027396
C         1.55582704908733    0.11845778277799   -0.65295702579776
O         0.98704939640296    2.69626143354090   -1.95534156119297
O         2.25080383832073    2.52324999395460   -1.32543712759255
O         1.65181244874903    0.16379355177319    0.54089077393757
H         2.16157699959995    3.01492203874404   -0.49667264426228
H         1.33706450453922    1.10547575979301   -3.21008201028805
H        -0.33184855466064    1.73279293360035   -3.05080602889572
H         2.40782610076453   -0.18168132861467   -1.29141472941253
H        -0.03339795548632   -0.49852753955990   -1.91414720977474
H        -0.47550652053986    0.77205817916946   -0.74456203456984
12
Properties=species:S:1:pos:R:3 -21.629659375784=T 6.2.3=T 0.000471206410=T pbc="F F F" energy:=T xtb:=T 830e466=T gnorm:=T
C       0.77133512       1.40266191      -2.40588558 
C       1.01648669       0.93461451      -0.95149665 
C       1.97152321      -0.24199450      -0.97412553 
O       0.01037777       2.58103140      -2.41799205 
O       1.51376625       1.98671771      -0.17722448 
O       3.11748859      -0.22262044      -0.64541205 
H       1.30000661       2.81793057      -0.62543510 
H       1.72804814       1.66534858      -2.86419680 
H       0.29834712       0.60355088      -2.98914166 
H       1.48579437      -1.16383198      -1.35785729 
H       0.05665962       0.58038685      -0.52835369 
H      -0.88083350       2.39571451      -2.09866911 
