10
 energy: -15.384862165442 gnorm: 0.000537108944 xtb: 6.2.3 (830e466)
C         1.07439144607563    1.41860350614932   -1.89364814997795
C        -0.20404612345297    0.86932025143165   -1.27236573146649
O         0.92070273716503    2.70272574634662   -2.44474973364757
O         0.73226085835046    3.65358420684427   -1.39096812110628
H         0.74676126414224    4.48900883051089   -1.87457545785604
H         1.88491475556382    1.42893827442901   -1.15392125062838
H         1.38144536102746    0.82494775841815   -2.75898490941778
H        -0.02484365677659   -0.13081991661281   -0.88849009836598
H        -0.99768718599661    0.83212083876353   -2.01433164998164
H        -0.51821945609844    1.51347050371940   -0.45505489755189
10
Properties=species:S:1:pos:R:3 6.2.3=T gnorm:=T pbc="F F F" 0.000877452522=T energy:=T xtb:=T 830e466=T -15.317186181465=T
C       0.71299094       1.10677503      -2.51026920 
C      -0.43022722       0.56277998      -2.14072290 
O       1.08686928       2.40650244      -2.42732897 
O       0.07879120       3.24263844      -1.86702524 
H       0.53674280       4.09208253      -1.81159509 
H       1.98965764       2.33830410       0.66169165 
H       1.54125025       0.56829244      -2.95031384 
H      -0.60055788      -0.48882375      -2.26351059 
H      -1.21466281       1.15792700      -1.71078849 
H       1.29482580       2.61542180       0.87277266 
