12
 energy: -21.559757146221 gnorm: 0.000214962474 xtb: 6.2.3 (830e466)
C         2.15445724754857    1.36306084545238   -2.30795418277376
C         0.68775383720356    0.21726722096882   -0.88287671919675
C        -0.49387219048752   -0.26522028493751   -0.54496480492684
O         2.21101904022241    2.58885793182860   -1.64428768736551
O         0.94217257069367    0.69647391747354   -2.14118780989730
O         1.46765051242922    3.57697688934889   -2.32724488198093
H         0.58625401371668    3.55491999149621   -1.92310033531436
H         2.99591795886496    0.80198624228121   -1.87577243581056
H         2.28659824249689    1.49082803991470   -3.38836732276364
H         1.52325222924738    0.26253857938826   -0.19263074384258
H        -0.66439722964448   -0.65702213216867    0.43905903318289
H        -1.30759623229148   -0.29066724104657   -1.24666210931075
12
Properties=species:S:1:pos:R:3 energy:=T -21.563505868109=T gnorm:=T 0.000732091455=T xtb:=T 6.2.3=T (830e466)=T pbc="F F F"
C        2.65342993       0.63894324      -2.03466248
C        0.47687827       0.88255019      -1.12606569
C       -0.63392773       0.38958796      -0.58366308
O        0.73471778       2.22155555      -1.01505370
O        1.38828917       0.08396093      -1.71984034
O        0.81859790       2.87821937      -2.29382725
H        0.16493463       3.58576546      -2.21675949
H        3.09610606       1.12729394      -1.16287262
H        2.57621211       1.36099101      -2.85096866
H        3.27115037      -0.20206304      -2.34180000
H       -0.79079478      -0.66988992      -0.53694321
H       -1.36638369       1.04308530      -0.15353349
