10
 energy: -15.384859660933 gnorm: 0.000651979176 xtb: 6.2.3 (830e466)
C         1.00435381072584    1.35764212551616   -1.94130406251249
C        -0.22518624271356    0.94436724874416   -1.14150681744052
O         0.88581392541687    2.62744908341271   -2.53237109232242
O         0.89598328082083    3.63200684030400   -1.51184110219148
H         0.93968441248464    4.44256556092745   -2.03463729762076
H         1.90006346552757    1.32668218242974   -1.30795023138839
H         1.15081808007160    0.70666912560166   -2.80753549939427
H        -0.08545624407723   -0.05674669517569   -0.74431870970918
H        -1.10836762353052    0.95909514270837   -1.77515928533257
H        -0.37378686472605    1.63716938553141   -0.31729590208791
10
Properties=species:S:1:pos:R:3 -15.468715876500=T 6.2.3=T gnorm:=T pbc="F F F" energy:=T xtb:=T 830e466=T 0.000914473994=T
C       0.95198547       1.94211865      -1.56642620 
C      -0.18815066       1.07890479      -1.03889975 
O       1.43309738       1.49897292      -2.80285841 
O       0.48028975       3.25929740      -1.65071503 
H       1.18034361       3.82604412      -1.99533119 
H       1.82211455       1.88244713      -0.89420875 
H       0.69567285       1.45743172      -3.42509059 
H       0.13296256       0.04283099      -0.97946985 
H      -1.04313364       1.16019466      -1.70690885 
H      -0.48126185       1.42865761      -0.05401139 
