12
 energy: -21.614998338582 gnorm: 0.000732111733 xtb: 6.2.3 (830e466)
C         0.39883762237642    0.75359905635178   -2.96004198351964
C         0.35186546160580    0.61857096043834   -1.46409720609990
C         1.28438044245270   -0.44324229489434   -0.95945132859463
O        -0.54483427682158    1.00213286179218   -3.65338163118908
O         1.79318408549719    3.22416228913337   -0.56714198598314
O         2.35697457906652   -0.70044393462826   -1.42748669591522
H         1.63573716418424    4.12239675174105   -0.86760607339759
H         2.74380020612128    3.10367511434061   -0.50755730494552
H         1.41029127657431    0.60019268724441   -3.37705079822157
H         0.89839762336259   -0.99170809562507   -0.07879412811412
H        -0.66850676247593    0.47759947777963   -1.10926171814474
H         0.72886257805425    1.57265512632690   -1.06391914587582
12
Properties=species:S:1:pos:R:3 6.2.3=T gnorm:=T -21.638354889490=T pbc="F F F" 0.000988530930=T energy:=T xtb:=T 830e466=T
C       1.04578235       1.82958263      -3.21022780 
C       0.35567220       0.78288969      -0.07487733 
C       1.39706537      -0.02046318      -0.76796049 
O      -0.11612612       1.56796389      -3.17174131 
O       1.58281623       2.85448674      -2.55814709 
O       2.37239526       0.42484258      -1.31424455 
H       2.54773049       2.83170000      -2.55289094 
H       0.72505911       1.77499117       0.17094568 
H       1.76813124       1.23941714      -3.80766687 
H       1.19620683      -1.10873717      -0.78350721 
H      -0.47559079       0.89255178      -0.77518488 
H      -0.01015217       0.27036475       0.80971279 
