12
 energy: -21.614572589485 gnorm: 0.000916321507 xtb: 6.2.3 (830e466)
C         0.40803766669603    1.32072645773045   -2.64689922290031
C         0.01519517360518    0.48278371743393   -1.46067458993946
C         1.27424557393917   -0.00126203428868   -0.77121078652377
O         0.00230288588365    2.42437837742694   -2.87495970088109
O         2.25816552795673    2.42858144847329   -0.85767655569528
O         2.14901410911059   -0.60392418981690   -1.32215884193592
H         1.82435345972114    3.20214589957632   -1.22793785989939
H         3.13642779084953    2.38173789266535   -1.24333492069926
H         1.14124710787767    0.81802918578162   -3.30271069678372
H         1.31799689447015    0.23829839818791    0.30255301160538
H        -0.50983741389978   -0.39506957121532   -1.84507756121947
H        -0.62784877621072    1.04348441804559   -0.78573227512796
12
Properties=species:S:1:pos:R:3 6.2.3=T gnorm:=T -21.645613522346=T pbc="F F F" energy:=T xtb:=T 0.000848231771=T 830e466=T
C       2.06942152       2.15196432      -2.93947681 
C      -0.46420867       0.49360967      -0.73441818 
C       0.86539832      -0.15331446      -0.53982964 
O       1.00889400       2.63446705      -2.66800108 
O       3.23456345       2.55019540      -2.47386456 
O       1.91128954       0.25358042      -0.96540267 
H      -0.37218569       1.38161127      -1.35498348 
H       3.11845239       3.25088924      -1.81061283 
H       2.21174379       1.32535447      -3.64945305 
H       0.82738305      -1.08635313       0.05912133 
H      -1.14436837      -0.21936372      -1.19735747 
H      -0.87708333       0.75726947       0.23845843 
