10
 energy: -15.384862907070 gnorm: 0.000586785439 xtb: 6.2.3 (830e466)
C         0.97777932321798    1.52906786736831   -2.10483782143516
C         0.01306909244376    0.77317069527565   -1.19893890921716
O         1.33213142853747    2.79646674533269   -1.61083321282770
O         0.20360344632755    3.67447917545753   -1.69694813186262
H         0.55500352608121    4.48289159902922   -1.30468135589413
H         1.94356440246264    1.02027835711825   -2.16656414455535
H         0.55590998839916    1.63099570154850   -3.11241113224716
H        -0.19048861632206   -0.20788047683120   -1.61792648687701
H        -0.91980145031705    1.32484565115226   -1.11619427712487
H         0.44142885916932    0.65699468454881   -0.20657452795885
10
Properties=species:S:1:pos:R:3 -15.468717950488=T 6.2.3=T gnorm:=T pbc="F F F" 0.000600437991=T energy:=T xtb:=T 830e466=T
C       0.61247576       1.90604414      -2.06980689 
C      -0.19444068       1.03217108      -1.11700815 
O       1.96980914       1.63127755      -1.84832068 
O       0.34198470       3.26893500      -1.90840581 
H       0.48741707       3.50504861      -0.98273678 
H       2.50330386       2.18024558      -2.43434506 
H       0.33808869       1.69138222      -3.11461380 
H       0.00168878      -0.01347239      -1.33076028 
H      -1.25380628       1.23873287      -1.23761478 
H       0.10567897       1.24094535      -0.09229776 
