12
 energy: -21.614766628802 gnorm: 0.000394160567 xtb: 6.2.3 (830e466)
C         0.71113591823956    0.80180082177240   -2.85163711807478
C         0.47087067014131    0.62804948347126   -1.37876286642836
C         1.01710426339816   -0.65633254277888   -0.83252690744208
O         0.06876181406156    1.51802545449503   -3.56645930399727
O         1.77747491056043    3.34914517600997   -0.76490237473405
O         1.90377822854795   -1.29751355555860   -1.31962711560919
H         1.24854419758513    3.85660368497854   -1.38565830003241
H         2.66908401214602    3.70228440813512   -0.79655141963024
H         1.56167189921294    0.20764102293910   -3.23001128427577
H         0.52533669038583   -0.97962449365787    0.10545265680432
H        -0.58257316426078    0.76242971516154   -1.12925038106600
H         1.01811055998196    1.44749082503186   -0.88587558551421
12
Properties=species:S:1:pos:R:3 6.2.3=T gnorm:=T pbc="F F F" -21.596379752821=T 0.000990183092=T energy:=T xtb:=T 830e466=T
C       1.98350646       1.44798629      -3.39522616 
C       0.22708389       1.21151989      -0.18461137 
C       0.96871970       0.01312539      -0.70801498 
O       0.89840844       1.96495581      -3.34842717 
O       0.68248082       2.45752031      -0.59997721 
O       1.78993796      -0.01263047      -1.58644232 
H       0.67389254       2.50111014      -1.57328936 
H       2.86084502       1.86386153      -2.88110544 
H       2.18683243       0.56770697      -4.01895007 
H       0.66273162      -0.92225241      -0.19860777 
H      -0.83441059       1.04827649      -0.45099538 
H       0.28927172       1.19882007       0.90983723 
