12
 energy: -21.562603201446 gnorm: 0.000584115297 xtb: 6.2.3 (830e466)
C         1.84267556831091    1.47744139676977   -2.14679216069771
C         1.10892654225452    0.75367424261402   -1.06032826460980
C         0.60755640234194   -0.46435401918526   -1.20410845685602
O         1.08928542589202    2.51481238869244   -2.73757889689779
O         0.89411150544269    3.56632275329950   -1.78677761554538
O        -0.07511943914699   -1.15682617373783   -0.26618588671162
H         0.58795920411571    4.28804974098988   -2.35005354551069
H         2.78580896968746    1.88911769573156   -1.76188027412029
H         2.04475847003111    0.81795758664015   -2.99379917149144
H         0.72625859772767   -1.04164643560136   -2.10940497723765
H        -0.18296978488616   -0.61518025509553    0.52620805020713
H         0.95974853822908    1.31022107888275   -0.14510880052872
12
Properties=species:S:1:pos:R:3 6.2.3=T gnorm:=T pbc="F F F" 0.000716732742=T energy:=T -21.499291607208=T xtb:=T 830e466=T
C       2.14524082       1.50838254      -2.97981056 
C       0.32145196       0.67808002       0.01143847 
C       0.13302067      -0.49123874       0.17802634 
O       1.41852474       2.69028070      -3.18421818 
O       1.08678010       3.25967767      -1.91485112 
O      -0.02633686      -1.77430540       0.37309983 
H       0.72295941       4.11774059      -2.16566102 
H       3.08686173       1.70695409      -2.45991825 
H       2.34223803       1.14474944      -3.98606561 
H       1.56231457       0.77403762      -2.41683320 
H      -0.91184874      -1.96297283       0.70129509 
H       0.50779356       1.68820430      -0.19231179 
