12
 energy: -21.513367063139 gnorm: 0.000671757245 xtb: 6.2.3 (830e466)
C         1.28588566429083    1.77067809744191   -1.72795915246455
C         0.89434365547480    1.19468727847736   -0.58443705006111
C         1.27107041977331   -0.17741534189074   -0.29637143861574
O         1.04455856097862    2.99785562399806   -2.17550030666895
O         0.25259239182747    3.78535224156584   -1.29303046757811
O         1.92985510353722   -0.88964963644187   -1.01699527481931
H         0.15716210336377    4.61325882434729   -1.78496339314024
H         1.37261236164996   -1.23787670008387   -3.39101326697404
H         1.88571283514384    1.24103198742891   -2.45936243466971
H         0.89927361431216   -0.54807039024931    0.67722204087299
H         1.09902530285885   -1.14392957435696   -4.11583895602712
H         0.29720798678979    1.73406758976302    0.13233970014538
12
Properties=species:S:1:pos:R:3 6.2.3=T gnorm:=T pbc="F F F" -21.518662750648=T energy:=T 0.000546949896=T xtb:=T 830e466=T
C       2.06032569       0.42156013      -2.05249965 
C       1.32016200       0.49725252      -0.95036933 
C       1.22327940      -0.63198249      -0.01616031 
O       0.07604277       3.01308008      -3.16374791 
O      -0.05098554       3.47327579      -1.82543563 
O       1.75453363      -1.70335137      -0.16047388 
H       0.28504479       4.37697296      -1.88747643 
H       2.60407819      -0.48226503      -2.27684168 
H       2.14848311       1.23839357      -2.74855993 
H       0.59794262      -0.42460044       0.87489644 
H      -0.39804059       2.17188340      -3.13652382 
H       0.76843393       1.38977087      -0.69271786 
