12
 energy: -21.617574169061 gnorm: 0.000743492594 xtb: 6.2.3 (830e466)
C         0.29913908982030    0.84778157337673   -2.85544912882779
C         0.09219828967910    0.71893133303155   -1.35613174025560
C         1.21374626660930   -0.11980866446420   -0.81839457008947
O        -0.40861528118352    0.34705282083347   -3.67594278908699
O         2.12996647601891    3.08566732125913   -1.08424471465008
O         2.33391699912237    0.27545948062066   -0.63660097601775
H         2.83268423714148    3.70451126543336   -0.88019585684074
H         2.47490827441108    2.20202050633569   -0.88697745034185
H         1.18160760673275    1.45440457041983   -3.11510563092598
H         0.94567534712022   -1.17158357974616   -0.62501218488493
H        -0.87581798150508    0.26562606483925   -1.15160580087575
H         0.16978067603232    1.73002730806300   -0.95001915720310
12
Properties=species:S:1:pos:R:3 6.2.3=T gnorm:=T pbc="F F F" -21.597038924429=T energy:=T 0.000399577458=T xtb:=T 830e466=T
C       0.95905019       2.28208900      -3.27755151 
C       0.56724040       0.91581841      -0.66416126 
C       1.26024064      -0.36848864      -0.31669833 
O       0.09279079       1.45637973      -3.39532162 
O       1.49031049       1.88853584      -1.06405974 
O       2.44884442      -0.49993885      -0.43258430 
H       0.75207974       3.32302691      -2.99234531 
H       2.35919500       1.44395161      -1.07494153 
H       2.00660397       2.08100745      -3.55029837 
H       0.60266238      -1.17668679       0.03903251 
H      -0.13389428       0.71386905      -1.49558800 
H      -0.01593375       1.28052629       0.18883747 
