12
 energy: -21.617099115790 gnorm: 0.000347405248 xtb: 6.2.3 (830e466)
C         0.91053053606835    1.01801781465459   -2.78713066380124
C         0.41540161422349    0.53673199650405   -1.45078462025010
C         1.19931356964700   -0.69723417272988   -1.06049981270442
O         1.33460893864874    2.11991470066315   -2.99921029955715
O         1.45033049650988    3.38039273154539   -0.41976103812183
O         1.25726417578783   -1.69773958974676   -1.71283283425746
H         1.50329352498573    3.21897119029253   -1.37290384693004
H         1.83449952795498    4.24440535274693   -0.26450258825509
H         0.87103102197298    0.24965388970300   -3.57705690281550
H         1.74323960056393   -0.59266573728970   -0.10571734589556
H        -0.62730223734656    0.23798756183197   -1.58528763088358
H         0.49697923098396    1.32146426182545   -0.69991241652854
12
Properties=species:S:1:pos:R:3 -21.580536047096=T 6.2.3=T gnorm:=T pbc="F F F" 0.000725436532=T energy:=T xtb:=T 830e466=T
C       1.17788850       1.00639156      -2.67033616 
C       0.80693004       0.57181695      -1.26572960 
C       1.40371245      -0.81306763      -1.03461511 
O       1.81337554       2.00222329      -2.87039602 
O       1.24476848       1.48461238      -0.31074786 
O       1.10760148      -1.79017914      -1.65343084 
H       0.31922909       4.42181716      -1.63549362 
H       1.71453642       2.19577877      -0.78038545 
H       0.83741267       0.32561820      -3.46374272 
H       2.14935368      -0.80905924      -0.22086421 
H      -0.28951303       0.46807668      -1.22776964 
H       0.10389468       4.27587100      -0.90208877 
