12
 energy: -21.559756409389 gnorm: 0.000855921356 xtb: 6.2.3 (830e466)
C         2.23258359273575    1.04855591474869   -2.23500330338241
C         0.37222971930843    0.33347756855783   -1.00233586463476
C        -0.41015770684622    0.33217371498898    0.06136481086066
O         1.59081854151977    1.91391047164408   -3.12157161241857
O         1.59774925803710    0.94653852338390   -0.99886968045291
O         1.82484320196658    3.26471179322266   -2.77996749235557
H         1.06268928234002    3.52352829140330   -2.23785534315615
H         3.25530920690894    1.38178092113184   -2.02574005897569
H         2.23734648702372    0.09114652181477   -2.77649492377233
H         0.09748350572241   -0.14699778950052   -1.93538323431506
H        -0.11512256305692    0.82406626829311    0.97058460602473
H        -1.35648252565975   -0.17290219968879    0.04536209657793
12
Properties=species:S:1:pos:R:3 energy:=T -21.652328794539=T gnorm:=T 0.000488944248=T xtb:=T 6.2.3=T (830e466)=T pbc="F F F"
C        2.22541651       0.78837362      -2.27158516
C        0.41023887       1.24834077      -0.81245010
C       -0.23227392       0.90033451       0.29342050
O        1.77405983       1.38863249      -3.45513639
O        1.18107011       0.31121158      -1.47637219
O        0.33003855       2.48547300      -1.34352878
H        0.72008272       2.49828007      -2.23383632
H        2.81623415       1.55619210      -1.75409849
H        2.85524898      -0.08611262      -2.47697329
H        1.30534455       0.73337595      -3.98713098
H       -0.11649047      -0.08353110       0.69944894
H       -0.87967989       1.59941963       0.78233226
