12
 energy: -21.561941150650 gnorm: 0.000689811548 xtb: 6.2.3 (830e466)
C         1.86133207308932    1.30063139507585   -2.37186185113643
C         0.95175328795590    0.03812608273867   -0.58528521737901
C        -0.29481065910098    0.01548279656663   -1.02192835339953
O         1.02165593587436    2.41264165041286   -2.35510285834993
O         2.02748248056760    0.67787284398222   -1.13323302485609
O         1.67126454182769    3.53573232818160   -1.79018754132318
H         1.28548631417726    3.62636202117494   -0.90647867222350
H         2.86988002663278    1.57723468949399   -2.69987802485101
H         1.38630778571751    0.62790965506921   -3.09984665456997
H         1.26834736687049   -0.47613187476795    0.31158666335690
H        -0.62060248110760    0.54628135255563   -1.89828459765766
H        -1.03861667250416   -0.54255294048356   -0.48538986761070
12
Properties=species:S:1:pos:R:3 energy:=T -21.677632792284=T gnorm:=T 0.000645302125=T xtb:=T 6.2.3=T (830e466)=T pbc="F F F"
C        1.79053018       1.00639544      -2.73682834
C        1.19651083       1.02069205      -0.52628862
C       -0.01278721       0.79274813      -1.46237444
O        0.43853171       1.33412140      -2.68448182
O        2.29028501       1.03884333      -1.41751028
O        1.11271230       2.19538048       0.20083220
H        1.11921507       2.94493710      -0.40985683
H        2.31662890       1.73781255      -3.35755376
H        1.93891093      -0.00997887      -3.14781986
H        1.32994283       0.22347356       0.21172267
H       -0.22952437      -0.27856119      -1.56339326
H       -0.90147617       1.33372602      -1.14233766
