12
 energy: -21.559754324557 gnorm: 0.000891000828 xtb: 6.2.3 (830e466)
C         2.14014681464423    1.18748591593612   -2.36571300907955
C         0.59073044618387    0.28648909744605   -0.85815486077031
C        -0.62978889662904   -0.02703331283338   -0.46388686179962
O         2.39665901285046    2.39406679229529   -1.71439270831652
O         0.85695368657656    0.69370321889636   -2.13931764733462
O         1.77218885091660    3.47807076720390   -2.37315751968141
H         0.93394150836575    3.60934180782542   -1.90406804906716
H         2.91547408055739    0.51670551715911   -1.96691948883303
H         2.23947526398744    1.29360616760821   -3.45169369474380
H         1.45073747335249    0.23979954889103   -0.19912095722459
H        -1.46535622453177    0.03398170875881   -1.13687121091891
H        -0.81175201627406   -0.36621722918688    0.53747600776955
12
Properties=species:S:1:pos:R:3 energy:=T -21.603773783442=T gnorm:=T 0.000583788676=T xtb:=T 6.2.3=T (830e466)=T pbc="F F F"
C        2.28487541       1.26999151      -2.65758437
C        1.02342445       0.70747089      -0.87886375
C       -0.45842920       1.06351692      -0.87000416
O        2.07830248       2.39041035      -1.85062491
O        1.42747702       0.26948582      -2.16611052
O        1.85685045       1.80360566      -0.58028542
H       -0.64116453       1.87818369      -1.56680750
H        3.32968741       0.91716321      -2.60488552
H        2.01888300       1.53853291      -3.68390930
H        1.25365706      -0.06575891      -0.13361827
H       -1.03477962       0.19498894      -1.17248965
H       -0.74937391       1.37240901       0.12936337
