12
 energy: -21.559757055680 gnorm: 0.000884669608 xtb: 6.2.3 (830e466)
C         2.28880053804544    1.32708749182184   -2.09620083529967
C         0.48768959829198    0.19911864335820   -1.10752196117197
C        -0.37535585728690   -0.02837186057536   -0.13454525517007
O         1.58234376728898    2.09232742064864   -3.02365628863663
O         1.56009188768075    1.03621663331573   -0.94358528159988
O         1.50691635571575    3.44487910533043   -2.62322076403635
H         0.66496919089000    3.52119626018387   -2.14657705979806
H         3.19415869458320    1.84538230136564   -1.76066584945406
H         2.54607745922697    0.41855653342040   -2.65994760475330
H         0.40176808290711   -0.25703323365262   -2.08755509828931
H        -1.19719625673344   -0.70291434674316   -0.27767076151090
H        -0.27106346060990    0.44345505152644    0.82535675972030
12
Properties=species:S:1:pos:R:3 energy:=T -21.539386835493=T gnorm:=T 0.000452620511=T xtb:=T 6.2.3=T (830e466)=T pbc="F F F"
C        2.04763702       1.16520139      -2.72852078
C        0.76264438      -0.13778281       0.38370532
C       -0.37718622       0.23730694      -0.08033542
O        0.84642594       1.89612742      -2.67626057
O        1.80387249      -0.47354616       0.78350075
O        1.06158627       3.16557298      -2.08422937
H        0.96145863       3.79472267      -2.81296022
H        2.47921328       1.04015382      -1.73299476
H        2.77727969       1.63983428      -3.39213891
H        1.75108086       0.19793700      -3.12920364
H       -1.29873633      -0.16404617       0.28927382
H       -0.42607600       0.97841865      -0.85562623
