12
 energy: -21.509548026158 gnorm: 0.000517529350 xtb: 6.2.3 (830e466)
C        -0.13565009184405    1.75314719862804   -2.01107652040752
C        -0.38594705732415    0.51575073230071   -2.39784593865556
C         2.63338321890080   -0.29196070235676   -0.33941479857026
O         1.12378000706312    2.27063565026776   -2.06449308668377
O         1.14287066308469    3.60165663001789   -1.56670249119874
O         3.66840202645404   -0.71508398954089    0.07813351658855
H         1.99417687838243    3.93564116744714   -1.88116349419661
H         1.65454569831720   -0.68202983043020   -0.01153244301780
H        -0.88409127284481    2.43413560379821   -1.63083827817017
H         2.57282942465409    0.51820975144600   -1.08349203364235
H        -1.38415145386338    0.12722645566513   -2.35346633449104
H         0.38895195902053   -0.12712866724251   -2.77380809755538
12
Properties=species:S:1:pos:R:3 -21.527975827949=T gnorm:=T 0.000373827780=T pbc="F F F" energy:=T xtb:=T 6.2.3=T 830e466=T
C       0.38695686       0.50126905      -1.71344777 
C      -0.68402331      -0.18540119      -2.09876686 
C       1.48969815      -0.13573562      -1.00220586 
O       2.93644983       3.16796434      -1.11543733 
O       1.64528198       3.50716362      -1.60903102 
O       2.49164900       0.42857086      -0.62972974 
H       1.71830226       4.46358409      -1.71067912 
H       1.35179603      -1.21634327      -0.81301675 
H       0.48977816       1.56086702      -1.90612503 
H       2.84201328       2.21145010      -0.91230919 
H      -1.50105129       0.27895101      -2.62416161 
H      -0.77775094      -1.24214000      -1.90078972 
