12
 energy: -21.617570955858 gnorm: 0.000847533975 xtb: 6.2.3 (830e466)
C         0.75772126620163    1.09397267189278   -2.90775804043124
C         0.04994679220586    0.73913560803107   -1.63226822971652
C         0.92278282394925   -0.28562400244636   -0.92375315103888
O         1.64633653728488    1.89763945715146   -2.99395736564219
O         2.12691759805084    2.71069845217929   -0.29813153181629
O         0.71043390599451   -1.46051235818444   -0.92409279732610
H         2.15623887140374    2.62523210915719   -1.26233494986971
H         2.74595209262730    3.40345350184719   -0.06480147973606
H         0.42145207997432    0.52264037046493   -3.78814466083948
H         1.78650521866368    0.16863777296527   -0.41413665694602
H        -0.92802956756846    0.30998752055141   -1.84085702878543
H        -0.00714761878698    1.61484889639034   -0.98547410785189
12
Properties=species:S:1:pos:R:3 -21.653472533579=T 6.2.3=T gnorm:=T pbc="F F F" 0.000933466500=T energy:=T xtb:=T 830e466=T
C       0.73114137       1.44654213      -2.62589414 
C      -0.69418683       1.60622385      -2.24229126 
C       2.47483756       0.20893135      -0.01097433 
O       1.62430285       2.19769035      -2.32203728 
O       3.24328058       1.20113131      -0.38302152 
O       1.41794552      -0.09654281      -0.48959347 
H      -0.85949801       2.55051256      -1.73045735 
H       2.84496421       1.70630070      -1.13182273 
H       0.93788641       0.54708853      -3.23372984 
H       2.93838809      -0.33446756       0.82935463 
H      -1.33263903       1.52755576      -3.11922007 
H      -0.93731272       0.77914383      -1.57602263 
