12
 energy: -21.564691423447 gnorm: 0.000926490745 xtb: 6.2.3 (830e466)
C         1.93220736647777    1.66544812009021   -1.75616031153048
C         1.62431171990665    0.65378024936023   -0.68572030818060
C         0.70451749765105   -0.30197146390775   -0.76916971246089
O         0.87406155793876    1.93497921471838   -2.66162663806931
O        -0.18811255700437    2.62606750718852   -2.02117392619410
O        -0.13268389401816   -0.53989816456888   -1.79202673968596
H        -0.16791444560869    3.51019798342563   -2.41287747903339
H         2.27940663231737    2.60019836121911   -1.29790395810674
H         2.71558373357396    1.29894173527175   -2.43174398645521
H         0.55427485169791   -1.00295968945500    0.04093037351461
H        -0.03394283312034    0.16590622083658   -2.45106477014806
H         2.22768037018791    0.72921992582109    0.20303745635007
12
Properties=species:S:1:pos:R:3 -21.642963879936=T gnorm:=T pbc="F F F" energy:=T xtb:=T 6.2.3=T 0.000630519857=T 830e466=T
C       1.41606901       1.87613244      -1.60779880 
C       1.18461945       0.84290481      -0.53842347 
C       0.69123424      -0.37980010      -0.70825940 
O       1.33513092       1.30218412      -2.89426263 
O       0.45855017       2.88692885      -1.44169981 
O       0.34264422      -0.97025490      -1.85760168 
H       0.68604655       3.66790310      -1.96011504 
H       2.43146453       2.30594890      -1.47586228 
H       1.37022869       1.99334654      -3.56543840 
H       0.54610306      -1.03433640       0.14105486 
H       0.51921251      -0.34511141      -2.58083306 
H       1.40808664       1.19406406       0.45373971 
