10
 energy: -15.384858762652 gnorm: 0.000850609511 xtb: 6.2.3 (830e466)
C         1.08105698794612    1.48557821610977   -1.69043738853596
C        -0.27956410414077    0.88592723643603   -1.35570673518447
O         1.16573799378056    2.86342971175992   -1.42630966281263
O         0.33625345818465    3.57665714925715   -2.35087969272973
H         0.56910996700005    4.49296564838213   -2.15953818997456
H         1.86405874637261    1.07289732903824   -1.04832061019011
H         1.33506877378216    1.29432044046088   -2.74108369424802
H        -0.26398575243524   -0.18365855996873   -1.54217845922685
H        -1.04366790251403    1.34498408302473   -1.97734149367900
H        -0.52316816797609    1.06468874549989   -0.31171407341867
10
Properties=species:S:1:pos:R:3 6.2.3=T gnorm:=T pbc="F F F" 0.000478769129=T energy:=T -15.317413881513=T 830e466=T xtb:=T
C       0.83018318       2.01262027      -1.21294960 
C      -0.41940880       1.61563223      -1.06983955 
O       1.28308096       3.18610487      -1.71814969 
O       0.23427606       4.05951922      -2.12832406 
H       0.72389942       4.85972127      -2.35860289 
H       1.70151516       1.43528423      -0.93407672 
H       0.81971974      -0.71858350      -2.46695486 
H       0.95180018      -1.45055927      -2.69653945 
H      -1.23865686       2.24252232      -1.37024387 
H      -0.64550904       0.65552835      -0.64782931 
