12
 energy: -21.508568135614 gnorm: 0.000516688688 xtb: 6.2.3 (830e466)
C         0.97832450896219    1.53203918298303   -2.25738979960031
C         0.07241624603569    0.80699644511444   -1.26971510550035
C         1.99055732568976   -1.62938404402227   -0.56090550000094
O         0.65086768454155    2.88888836454930   -2.42117381746474
O         0.97398051259476    3.60283454392964   -1.22286954303999
O         2.97687933665598   -1.10790277898356   -0.38830552184884
H         0.79738557517965    4.51527827802012   -1.48305946436620
H         2.02875605978620    1.44272747259102   -1.95146904840933
H         0.86157322547409    1.13385649352689   -3.26888261024869
H        -0.96084572273065    0.84717088152499   -1.60404329549681
H         0.38015757082257   -0.23485884127132   -1.18173271745862
H         0.14496767698996    1.28093400203861   -0.29384357656733
12
Properties=species:S:1:pos:R:3 6.2.3=T gnorm:=T pbc="F F F" -21.480480445507=T 0.000254470598=T energy:=T xtb:=T 830e466=T
C       1.29519158       1.64689360      -2.15572589 
C       0.75484597       0.83751021      -0.97344380 
C       1.24086809      -1.50415021      -0.94729821 
O       0.53440819       2.79366357      -2.40950155 
O       0.68101113       3.71469025      -1.32832480 
O       1.59848611      -0.31382753      -0.77061836 
H       0.53050609       4.56693254      -1.75820630 
H       2.34620246       1.90346792      -1.97148283 
H       1.21505048       1.07683277      -3.08578098 
H      -0.27902997       0.52299672      -1.16262412 
H       0.17572860      -1.61097829      -1.27454663 
H       0.80175125       1.44454845      -0.06583652 
