12
 energy: -21.509532281776 gnorm: 0.000965827855 xtb: 6.2.3 (830e466)
C        -0.11323118991042    1.81092240730497   -1.93349568231216
C        -0.54559673667092    0.57360072020289   -2.09454165422227
C         2.62098240244968   -0.30121502175927   -0.35387269455159
O         1.16002512049948    2.16439429382880   -2.26646026402017
O         1.39101897474731    3.53730352660366   -1.98334733865231
O         3.63293223559993   -0.82399864334054    0.00282081001316
H         2.19748192015291    3.72721562172066   -2.48137195211861
H         2.57734164203057    0.41484116827512   -1.19040272767165
H        -0.71204237321262    2.61705928102769   -1.53369973793755
H         1.64767913558423   -0.49709364381435    0.12728398904064
H        -1.55134346624644    0.31413240213023   -1.82846847979653
H         0.08405233497874   -0.19705211217429   -2.50014426777306
12
Properties=species:S:1:pos:R:3 6.2.3=T gnorm:=T -21.527968959752=T pbc="F F F" energy:=T xtb:=T 0.000903155133=T 830e466=T
C       0.30045629       0.56459053      -1.52229859 
C      -0.87999172      -0.03220390      -1.65175028 
C       1.42586423      -0.09661576      -0.87130018 
O       3.18080503       2.93422820      -1.73251142 
O       1.86634660       3.38034682      -2.04786159 
O       2.52460357       0.38659889      -0.72847139 
H       2.03101634       4.28750433      -2.33304518 
H       3.01680160       2.04369319      -1.35049670 
H       0.48061528       1.56627735      -1.88921060 
H       1.20841125      -1.11396080      -0.49688459 
H      -1.71444214       0.45077130      -2.13126999 
H      -1.05118632      -1.03112016      -1.28059948 
