10
 energy: -15.384839440146 gnorm: 0.000911582604 xtb: 6.2.3 (830e466)
C         0.70422427501471    1.56966730103150   -2.29316026359071
C         0.12959745799187    0.80198143350967   -1.10883664547652
O         1.18274584493246    2.84701530762961   -1.95207033652032
O         0.08177839623711    3.69197826287018   -1.59943041225953
H         0.49161055654847    4.56523748463608   -1.61019553875121
H         1.59984094932650    1.08034486459189   -2.68613447599405
H        -0.04375445024269    1.65583607328180   -3.09159046954312
H        -0.71732134099643    1.34621164931660   -0.69925372489808
H        -0.20037884978445   -0.18053790483442   -1.43277005601276
H         0.88147716097246    0.68957552796709   -0.33256807695372
10
Properties=species:S:1:pos:R:3 6.2.3=T gnorm:=T pbc="F F F" energy:=T -15.317252113879=T 0.000561841473=T xtb:=T 830e466=T
C       0.22709345       2.11555992      -1.98632767 
C       0.05944416       1.56547656      -0.79954985 
O       0.51030695       3.40890237      -2.27647564 
O       0.62398330       4.22981725      -1.11676245 
H       0.81691061       5.09285072      -1.50666651 
H       0.88931211      -0.95089021      -2.62928192 
H       0.15809947       1.59210791      -2.93073129 
H      -0.16570446       0.52082348      -0.70486428 
H       0.84761272      -1.65556756      -2.95473402 
H       0.14276169       2.14822955       0.09938363 
