9
 energy: -16.536694850934 gnorm: 0.000606188798 xtb: 6.2.3 (830e466)
C         0.38471474438192    0.74194196067314   -2.78320767522047
C         0.53082061626653    0.58765085520665   -1.29166957446958
C         1.45064426078081   -0.55481989218912   -0.94671507923532
O         0.50477828208149    1.77104370659105   -3.37664910853176
O         2.35852616295938   -0.48849263712415   -0.17451488547952
H         0.14663251915148   -0.20646012952545   -3.30339783044789
H         1.20918722790339   -1.49312038875190   -1.48363778572985
H        -0.45791145680066    0.33500807751722   -0.89583606392393
H         0.87981764327569    1.51655844760251   -0.83808199696169
9
Properties=species:S:1:pos:R:3 6.2.3=T gnorm:=T pbc="F F F" energy:=T -16.531813393710=T 830e466=T xtb:=T 0.000511854827=T
C       1.20577464       0.54918233      -2.03551452 
C      -0.27771620       0.67611877      -1.83515433 
C       1.89582196      -0.54852696      -1.21215447 
O       1.84420818       1.24259876      -2.78203450 
O       3.06927685      -0.76779541      -1.25858609 
H      -0.77670049       0.54931674      -2.79453292 
H       1.21380209      -1.12936931      -0.56035761 
H      -0.66430093      -0.04665706      -1.12384498 
H      -0.50295608       1.68444214      -1.49153057 
