10
 energy: -15.384853950407 gnorm: 0.000371883454 xtb: 6.2.3 (830e466)
C         0.96726037395208    1.46099746422287   -1.82680833930259
C        -0.36535922361612    1.10689347130239   -1.17801608698699
O         0.95145791692755    2.69804239103952   -2.49430516623941
O         0.84839610475820    3.75659490808870   -1.53596061342278
H         1.00695269565559    4.53525150438985   -2.08352788084280
H         1.77014596190400    1.45465292250882   -1.07847748894134
H         1.21532521787252    0.76190943871704   -2.63013015706417
H        -0.29324590544470    0.13573979159437   -0.69753749498789
H        -1.15341140346264    1.07917358472607   -1.92597318203533
H        -0.61772173854647    1.85552452341038   -0.43168359017669
10
Properties=species:S:1:pos:R:3 6.2.3=T gnorm:=T pbc="F F F" 0.000754215543=T -15.317600295988=T energy:=T xtb:=T 830e466=T
C       0.28999903       1.70416542      -2.57148708 
C      -0.66623904       1.41038300      -1.71146848 
O       1.04025516       2.83035982      -2.63709787 
O       0.71237499       3.77909460      -1.62508443 
H       1.35558785       4.47895007      -1.79589841 
H       1.81672335       0.42701599       0.54671918 
H       0.62383817       1.05846212      -3.37257161 
H       1.29166332       0.58265233      -0.00846336 
H      -1.18553140       0.47351738      -1.76989563 
H      -0.94887143       2.10017928      -0.93717232 
