10
 energy: -20.531033485489 gnorm: 0.000443756265 xtb: 6.2.3 (830e466)
C         0.71629089823029    1.81934004201060   -2.20074379069824
C         0.35730395124889    0.88593038431278   -1.27733496624992
C         0.67878019348080    0.82607533689176    0.11814266533060
O         1.42351627053546    2.91376464561772   -2.19675831592969
O         2.04171488749971    3.38440504433707   -1.03300114627928
O         1.34802710142686    1.62569215476321    0.75714568920879
H         1.82577503665383    2.75944589472759   -0.26397583147268
H         0.36447473229079    1.68969767418780   -3.22160371818441
H         0.25453025136422   -0.05028864503125    0.63089844986748
H        -0.25632332273087    0.08073746818277   -1.64864903559267
10
Properties=species:S:1:pos:R:3 6.2.3=T gnorm:=T pbc="F F F" 0.000311336452=T energy:=T xtb:=T 830e466=T -20.557192920928=T
C       0.85644764       1.44849540      -2.43452454 
C       0.11653495       1.21861278      -1.35951417 
C       1.03798741       1.36671704      -0.16866727 
O       2.16237917       1.66112084      -2.17242157 
O       0.72649584       2.44326503       0.65649355 
O       2.31795329       1.50444575      -0.75916840 
H       0.79831522       3.26957648       0.16085934 
H       0.61288600       1.49237316      -3.47912001 
H       1.05687841       0.49660159       0.49932707 
H      -0.93178794       1.03359193      -1.27914400 
