12
 energy: -21.564692996639 gnorm: 0.000588765265 xtb: 6.2.3 (830e466)
C         1.99982595057915    1.53937582199075   -1.75272532616036
C         1.55531032492594    0.57929806920366   -0.68272267852201
C         0.51428666057628   -0.24317556376267   -0.76663225529004
O         0.99186563060700    1.94256625217201   -2.66570637910094
O         0.02817841959799    2.77295808055201   -2.03569864112843
O        -0.34638721396831   -0.36694475038624   -1.79045141987862
H         0.17065565382722    3.64591089044336   -2.42770714669802
H         2.46253003047620    2.42233565518613   -1.29308694742790
H         2.73368632979700    1.07218866508778   -2.42209833856521
H         0.26944758430905   -0.91618065177038    0.04402426701089
H        -0.15190273029320    0.31800232785670   -2.44998748591219
H         2.16181335956552    0.57358520342675    0.20709235167280
12
Properties=species:S:1:pos:R:3 0.000281505515=T 6.2.3=T gnorm:=T pbc="F F F" energy:=T -21.562779382527=T xtb:=T 830e466=T
C       1.72886966       1.43596272      -1.91999311 
C       1.29881654      -0.09771830       0.00114264 
C       0.96185026       0.33847072      -1.20385601 
O       0.93848466       2.12016014      -2.86873837 
O      -0.02417918       2.94672090      -2.22827603 
O      -0.06843659      -0.18934147      -1.90551746 
H       0.21526191       3.84350462      -2.50014222 
H       2.17709846       2.12922904      -1.20115157 
H       2.51776264       0.99825259      -2.54178085 
H       0.75325228      -0.89448311       0.46943675 
H      -0.24007984       0.38501959      -2.66811740 
H       2.13060919       0.32414254       0.53129363 
