12
 energy: -21.563066440904 gnorm: 0.000793968979 xtb: 6.2.3 (830e466)
C         1.83808436413744    1.65058880568786   -0.76337406170824
C         0.75665183690757    0.64714968205102   -1.01765124868594
C         0.81556827236315   -0.24657156241236   -1.99461207092481
O         1.45481838436407    2.97067167662080   -1.08804702202852
O         1.34717368307859    3.09584879155539   -2.50849501040647
O        -0.13310785540916   -1.15882640212062   -2.29548260658300
H         0.85042516005776    3.91838752095738   -2.60021604668927
H         2.74728943150820    1.38500773791266   -1.31462179859338
H         2.06246161302028    1.73123966405821    0.30432054496684
H         1.67140797827037   -0.33822201958870   -2.64664204135844
H        -0.89625156435528   -1.04361832077641   -1.71505845371878
H        -0.12513130394285    0.72815442605459   -0.39582018427000
12
Properties=species:S:1:pos:R:3 -21.557534853794=T 6.2.3=T gnorm:=T pbc="F F F" energy:=T xtb:=T 830e466=T 0.000600463708=T
C       1.03803025       1.34601109      -1.89312244 
C       0.96657171       0.37515335      -0.74835284 
C       1.99980381      -0.31544666      -0.30844252 
O       0.56463644       2.57020212      -1.37639337 
O       0.90797778       3.64560574      -2.22098317 
O       0.27365887       0.93936393      -2.99388206 
H       0.31985784       3.55946270      -2.98876582 
H       2.06205734       1.46058284      -2.26883834 
H       2.97790319      -0.21426765      -0.74741955 
H       1.90720689      -1.01188968       0.50731377 
H      -0.61348009       0.70445002      -2.69208770 
H      -0.01483402       0.28058221      -0.30472597 
