12
 energy: -21.564695427199 gnorm: 0.000673725546 xtb: 6.2.3 (830e466)
C         1.98403443039287    1.55497119385660   -1.78248574125930
C         1.58914939497182    0.57895815177703   -0.70750373907130
C         0.55805748481145   -0.25790005414463   -0.76570528381347
O         0.93932518351018    1.95607292881998   -2.65423509311381
O        -0.01297800244120    2.76424291733839   -1.97956527587473
O        -0.33308925644079   -0.38505422029970   -1.76223291417476
H         0.11041365750983    3.64620784382698   -2.35761751882106
H         2.45360487480346    2.43817156970672   -1.33064105310959
H         2.69779951818696    1.10303098593707   -2.48300687970004
H         0.34960525343374   -0.94219597594551    0.04578783782248
H        -0.17089411686967    0.30960982931485   -2.42052052664119
H         2.22428157813132    0.57399482981220    0.16202618775669
12
Properties=species:S:1:pos:R:3 6.2.3=T gnorm:=T -21.562801624974=T 0.000461643600=T energy:=T xtb:=T 830e466=T pbc="F F F"
C       1.73382195       1.45441011      -1.91188266 
C       0.96483039       0.32871792      -1.24433476 
C       1.27379789      -0.13142868      -0.04069482 
O       0.94698422       2.17313032      -2.83884047 
O      -0.04359920       2.94532161      -2.17784394 
O      -0.03742652      -0.19613491      -1.98767663 
H       0.23926232       3.86215374      -2.30538835 
H       2.17670658       2.11960000      -1.16338634 
H       2.52718333       1.04348415      -2.54624530 
H       0.72733639      -0.94725784       0.39245517 
H      -0.20403357       0.39958856      -2.73473872 
H       2.08444622       0.28852501       0.52287682 
