12
 energy: -21.564381588666 gnorm: 0.000912829394 xtb: 6.2.3 (830e466)
C         0.27971193480994    1.74170971818829   -2.17620668163819
C         0.15327978458933    0.73196641930514   -1.06468503051725
C         1.06726329676853   -0.18746962626663   -0.77198250017307
O         1.61949615086964    2.07063813376723   -2.51423055283010
O         2.20242037329312    2.90535296187155   -1.53180002882206
O         2.25334179122635   -0.36958436457816   -1.39154460393758
H         2.70328974893968    2.30877886292576   -0.95244385572628
H        -0.11406512120040    1.34649169614227   -3.12034214793433
H        -0.27147273970778    2.65361526031552   -1.92446988131393
H         0.93208086864016   -0.88684246621968    0.04114785596789
H         2.31994927268693    0.24972244558071   -2.13797931148198
H        -0.75589536091530    0.77562095896782   -0.49116326159309
12
Properties=species:S:1:pos:R:3 6.2.3=T gnorm:=T pbc="F F F" energy:=T xtb:=T -21.649843197083=T 0.000367423999=T 830e466=T
C       0.62705150       1.92511206      -1.80726968 
C       0.54228377       0.87956896      -0.72755037 
C       1.06681598      -0.34204292      -0.74752378 
O       1.37527156       1.45334448      -2.90806376 
O       1.17082885       3.12486025      -1.32865073 
O       1.76759172      -0.91919593      -1.73221598 
H       1.99598548       2.93455829      -0.86513288 
H       1.45429655       2.16756103      -3.55051165 
H      -0.38857624       2.20065626      -2.14068592 
H       0.94450380      -1.00501201       0.09926158 
H       1.83459909      -0.28887656      -2.46945760 
H      -0.00125206       1.20946609       0.14210076 
