12
 energy: -21.560858386104 gnorm: 0.000879469974 xtb: 6.2.3 (830e466)
C         1.69501186154136    1.87194838882062   -1.33758945398108
C         1.55154601037489    0.38276886783739   -1.31567137659226
C         0.43359422385458   -0.26483575982580   -1.60802724694561
O         0.46640225454368    2.45118896907667   -1.70260112915758
O         0.63717435358448    3.86907753096965   -1.73591219046330
O         0.27358310326251   -1.60760903310993   -1.59657370483278
H        -0.21991645218739    4.16751784159107   -2.06786610695000
H         1.99886042137234    2.23966360422741   -0.34554208227235
H         2.47334787207573    2.16770564919781   -2.05803118869005
H        -0.47352886884120    0.24692720391175   -1.88770236878066
H         1.10160559976075   -2.03563500881692   -1.34325283512450
H         2.45180962065825   -0.14871825387970   -1.03693031620987
12
Properties=species:S:1:pos:R:3 6.2.3=T gnorm:=T pbc="F F F" 0.000639200205=T energy:=T xtb:=T 830e466=T -21.480523521858=T
C       0.80792158       2.02026968      -1.23001906 
C       0.49994355       0.75869394      -1.16744389 
C       0.18836407      -0.50592866      -1.14435769 
O       0.10282153       2.89284934      -2.02224847 
O       0.57700654       4.22101121      -1.83384220 
O       0.68997272      -1.47750915      -1.95175852 
H      -0.04395976       4.73729762      -2.36391859 
H       1.61289753       2.48085128      -0.66799124 
H       3.92513416      -0.03924237      -1.41607754 
H      -0.50497352      -0.91887677      -0.42241685 
H       1.30074270      -1.09256649      -2.59214020 
H       3.23361889       0.26315038      -1.22348576 
