12
 energy: -21.513779754541 gnorm: 0.000861060431 xtb: 6.2.3 (830e466)
C         0.82544385521196    0.65888623749657   -2.51513920463417
C        -0.07160715717219    1.38629432802700   -3.14946313950462
C         1.22677060247469    0.51800328722718    0.65282778620887
O         1.91233767910699    1.08694548034271   -1.81329613809933
O         2.03063461185397    2.49866734445816   -1.73651818155681
O         0.65922051348426   -0.51341965043335    0.44979892508062
H         2.87477705024559    2.68394292991638   -2.17402012043676
H         0.71335214620229    1.49262100384608    0.65108998997698
H         0.82066294545133   -0.41966169459419   -2.45279390575319
H         2.30491640720495    0.56996656003051    0.87606815988216
H        -0.88480798941759    0.91720444851603   -3.66709076218285
H        -0.02237066464583    2.46058972516675   -3.15733340898037
12
Properties=species:S:1:pos:R:3 6.2.3=T gnorm:=T -21.641771490840=T pbc="F F F" energy:=T 0.000529139410=T xtb:=T 830e466=T
C       0.37976714       1.16295907      -2.47522961 
C      -0.40690469       1.28926063      -3.52643366 
C       2.20850281       0.24680614       0.72523247 
O       1.25364564       2.11668425      -2.03376384 
O       2.53560762       1.46288567       0.35668324 
O       1.47529551      -0.49671965       0.14029808 
H       2.09680681       1.71106817      -0.49130799 
H       1.20622524       2.89179955      -2.60813312 
H       0.41592530       0.28372517      -1.84879805 
H       2.70852226      -0.00870723       1.67421851 
H      -1.06909629       0.49775654      -3.81753020 
H      -0.41496735       2.18252168      -4.13110584 
