12
 energy: -21.617567385312 gnorm: 0.000426460336 xtb: 6.2.3 (830e466)
C         0.68038915126368    0.48514861078333   -2.91590939585341
C         0.21728145352054    0.50967837802934   -1.47020557044763
C         1.36875700780286    0.06627695670197   -0.61749307852324
O         0.26121591085631   -0.26659328941211   -3.74274886958016
O         1.49239203845061    3.34976987120588   -1.19062544813839
O         2.31600876597301    0.75225473776883   -0.34124903089128
H         2.01838962293535    2.61607057121540   -0.83981127667964
H         1.93297252042056    4.15723495081312   -0.92146939059596
H         1.45482291252025    1.23886967200699   -3.13072381091334
H         1.30870616424453   -0.98049665116680   -0.27595847045302
H        -0.01625720017859    1.55327706522494   -1.24507742287022
H        -0.64548834780388   -0.14149087314799   -1.34432823505259
12
Properties=species:S:1:pos:R:3 6.2.3=T gnorm:=T -21.571552282259=T pbc="F F F" energy:=T xtb:=T 830e466=T 0.000618503488=T
C       0.96169265       0.80337115      -2.52902073 
C       1.09653729       0.84266370      -1.01625909 
C       1.62345647      -0.54079743      -0.62167653 
O       0.15672943       0.14728096      -3.12284359 
O       1.96227748       1.83729588      -0.56004623 
O       2.68180923      -0.75356081      -0.12463061 
H       1.65429882       2.70450142      -0.84715518 
H      -0.24576817       4.00203437      -2.22998134 
H       1.71514586       1.43311479      -3.03880468 
H       0.89432566      -1.33230191      -0.87258115 
H      -0.20127077       3.27169863      -2.50138709 
H       0.08995604       0.92469924      -0.57121379 
