12
 energy: -21.579043618638 gnorm: 0.000266030159 xtb: 6.2.3 (830e466)
C         1.82416742735332    1.31733562025979   -2.31208503390854
C         0.16183231950497    0.11541993204357   -0.78551661608568
C         1.54799565007618    0.16173317420691   -1.34656838511235
O         0.81623789049399    2.28732789634099   -2.40834300130492
O         0.76148607994768    3.06504540116498   -1.21558973571471
O         2.41528634698615   -0.63298458574768   -1.09191758077559
H         0.70748829431855    3.97223065938908   -1.54527525940260
H         2.79174395982917    1.76931667902266   -2.05661689576563
H         1.89031489809645    0.90988792438980   -3.32618705638982
H         0.01066603291558   -0.80115547719514   -0.22319467390875
H        -0.56363131105477    0.19886116791140   -1.59154115330438
H         0.02562241153267    0.97698160821363   -0.13306460832703
12
Properties=species:S:1:pos:R:3 830e466=T 6.2.3=T gnorm:=T pbc="F F F" energy:=T xtb:=T -21.566433286228=T 0.000466169960=T
C       1.38368665       1.12195214      -1.46136949 
C       0.22166847       0.48212556      -0.69806208 
C       2.03592587       0.13742171      -2.40773480 
O       0.99356941       2.22757203      -2.24459814 
O       0.73591652       3.33817453      -1.38395969 
O       2.34499073      -0.97983103      -2.11459980 
H       0.47532695       4.02396177      -2.01242495 
H       2.15375815       1.44839277      -0.74299620 
H       2.20725207       0.55531824      -3.41653744 
H       0.57902470      -0.40740853      -0.18824513 
H      -0.56731607       0.20554480      -1.39331625 
H      -0.17459345       1.18677600       0.02794397 
