12
 energy: -21.579052463653 gnorm: 0.000466111166 xtb: 6.2.3 (830e466)
C         1.60950254384602    1.30405866415362   -2.47672820665778
C         0.59481456428808    0.13258139566324   -0.44289728213796
C         1.81918348068780    0.39823356794071   -1.26036304852879
O         0.35762242811338    1.93033005565685   -2.56290340596145
O         0.23938269759380    2.94104480001550   -1.56613113222474
O         2.91029292868815   -0.05047513253496   -1.02286539395201
H        -0.09141574245283    3.70397780746312   -2.05995722125929
H         2.42709172571830    2.03571150429644   -2.51930763836765
H         1.65289430433685    0.68457058189288   -3.37830149832953
H         0.80225527972741   -0.61187036137187    0.31979762275802
H        -0.21543024788011   -0.19381856636745   -1.09102519200955
H         0.28299603733309    1.06554568319183    0.02467239667062
12
Properties=species:S:1:pos:R:3 6.2.3=T gnorm:=T pbc="F F F" -21.546667085468=T energy:=T 0.000441498843=T xtb:=T 830e466=T
C       1.74271636       1.21170018      -2.61528515 
C       0.41379350       0.08663807      -0.97780632 
C       1.83968134       0.17692101      -1.50346377 
O       0.37669767       1.43019518      -2.81976913 
O      -0.28449273       1.13932205      -1.57702822 
O       2.80204381      -0.42055885      -1.13259361 
H       0.07061234       3.49174520      -0.38297914 
H       2.26672085       2.12527299      -2.29445574 
H       2.17378265       0.84753247      -3.54951879 
H       0.37157647       0.22028168       0.10472303 
H      -0.00213595      -0.89619893      -1.24770188 
H       0.61819369       3.92703895      -0.04013127 
