12
 energy: -21.512873854122 gnorm: 0.000655934973 xtb: 6.2.3 (830e466)
C         1.50221075581661    1.61706837421232   -2.07908688733284
C         1.70156612979056    1.27929669427268   -0.61948541039277
C         1.17919159841067    0.23861653567631   -0.05795092930541
O         0.49850421483582    2.57411109810892   -2.29823754518733
O         0.93640192655534    3.84291795588190   -1.80488596495418
O         0.75526326353508   -0.73038700541951    0.42412085866868
H         0.14246897065945    4.38266719217757   -1.90568196582497
H         2.44956097629830    1.97199819659126   -2.50293180656265
H         1.14175638371829    0.75109331713540   -2.63807487889092
H        -0.01509427171433   -2.28806394276111   -1.88122406114744
H        -0.09920067022594   -2.32198447292914   -2.65350337168538
H         2.19669072232051    2.02256605705551   -0.01894803738343
12
Properties=species:S:1:pos:R:3 6.2.3=T gnorm:=T pbc="F F F" 0.000796098920=T energy:=T -21.557035586315=T xtb:=T 830e466=T
C       1.53940448       1.63715351      -2.35990601 
C       1.32110208       0.85240388      -1.10364910 
C       0.82200920      -0.37470971      -1.09136975 
O       0.64932082       2.72301910      -2.50730736 
O       0.97459873       3.73950628      -1.55628224 
O       0.62215849      -1.06276006       0.06659762 
H       0.16193068       4.26072509      -1.53035073 
H       2.57109721       2.01088295      -2.40219460 
H       1.32998187       1.03346412      -3.24666337 
H       0.27431454      -1.94038565      -0.11698974 
H       0.56788209      -0.88782263      -2.01284866 
H       1.55551981       1.34842312      -0.17492605 
