12
 energy: -21.604819392304 gnorm: 0.000475251930 xtb: 6.2.3 (830e466)
C         0.73542376201282    1.45110814844284   -3.01051287392793
C         0.42298953256885    0.39591611506771   -1.93787780080200
C         0.88907790383078    1.11469080946484   -0.65682820062156
O         1.63764853834937    2.34617518333901   -2.40033630291346
O         1.97014580195241    0.41744643573501   -0.12580649511748
O         1.21536076538877    2.42284290447321   -1.04244570321558
H         2.44754910357778    0.98849563869689    0.48725934469955
H        -0.17692438770635    1.97747750399434   -3.32180275656548
H         1.25144208635759    1.05004599354745   -3.88222478523346
H         0.09316384809458    1.23374933995935    0.09539133927018
H         1.02465314083846   -0.50273715131416   -2.05536323031303
H        -0.63074009526504    0.13630907859353   -1.90746253525977
12
Properties=species:S:1:pos:R:3 6.2.3=T gnorm:=T pbc="F F F" 0.000796780467=T energy:=T xtb:=T 830e466=T -21.550583794600=T
C       0.55613372       1.27377864      -2.86906870 
C      -0.44718197       0.18566647      -2.48487450 
C       2.00773721       1.93399089       0.35649988 
O       1.67948555       1.30650834      -2.07088590 
O       3.26986391       1.59363545       0.45901945 
O       1.26357211       1.86960356      -0.56735718 
H       3.61782907       1.76422748       1.34648996 
H       0.05796872       2.25645138      -2.88175789 
H       0.94556962       1.08316572      -3.87897084 
H      -0.84379037       0.38159135      -1.49133848 
H       0.04079648      -0.78611147      -2.47899894 
H      -1.26819405       0.16901220      -3.19676685 
