12
 energy: -21.579058749116 gnorm: 0.000636098192 xtb: 6.2.3 (830e466)
C         1.69099579522264    1.39866172528414   -2.39602530021121
C         0.33036510290304    0.02499903376521   -0.72426505216110
C         1.63725500252618    0.21439606806176   -1.42714717333089
O         0.60741612803942    2.28734893902084   -2.33309284988522
O         0.64328917752849    3.02955308761290   -1.11880408266897
O         2.60198221153158   -0.48991188998666   -1.27973604054787
H         0.55585387034446    3.94725726953962   -1.41234059260745
H         2.64794161586782    1.92135177979779   -2.26615558163480
H         1.64576314314952    1.00801346253197   -3.41784015037356
H         0.33473386771861   -0.90201866650352   -0.15873417644794
H        -0.48109475888953    0.03168128599608   -1.44899235020742
H         0.17468884405789    0.86846790487987   -0.05277664992349
12
Properties=species:S:1:pos:R:3 6.2.3=T gnorm:=T 0.000827492581=T pbc="F F F" energy:=T xtb:=T 830e466=T -21.539381559099=T
C       2.02685434       2.12417697      -2.11102987 
C       0.08691082      -0.66669382      -0.65646203 
C       1.15334673      -1.17947572      -1.16126550 
O       0.62485032       2.22041453      -2.17904207 
O       0.14629969       3.18612201      -1.25776365 
O       2.12566164      -1.62041610      -1.62750282 
H      -0.17129044       3.91352039      -1.81125483 
H       2.50807948       3.05447759      -2.42943347 
H       2.27075241       1.32077695      -2.80322755 
H      -0.50289288      -1.18195341       0.07406255 
H      -0.23760623       0.30758556      -0.96918735 
H       2.35822413       1.86126505      -1.10380340 
