12
 energy: -21.522099687827 gnorm: 0.000400621026 xtb: 6.2.3 (830e466)
C         1.38232626689481    0.97342186359594   -2.70979373616544
C         0.28134836018337    0.84679099090378   -1.65607262004773
C         0.91138642384361    0.89484326984618   -0.26350065895157
O         2.27234605692330    2.05172865518477   -2.39305750728997
O         1.79274813678016    2.77866118810669   -1.30305883912572
O         1.84245493391805    1.98003112600037   -0.16014114756795
H         0.14615260923899    1.02084495405909    0.50990404400235
H         1.99719489234089    0.06675327803205   -2.73763560897509
H         0.95708127784236    1.15618034849134   -3.70245731875428
H         1.48285053283486   -0.01906041644610   -0.06577298454159
H        -0.25765793769640   -0.08844248095036   -1.78987851635363
H        -0.41873155310400    1.67832722317625   -1.76413510622939
12
Properties=species:S:1:pos:R:3 6.2.3=T gnorm:=T 0.000729066767=T pbc="F F F" energy:=T -21.525865900108=T 830e466=T xtb:=T
C       1.78159513       0.95103252      -2.48766271 
C      -0.25702863       0.83716645      -0.94447260 
C       1.26354857       0.84910305      -1.02174695 
O       2.56324738       2.12639385      -2.48986907 
O       2.01085441       2.91455710      -1.46346943 
O       1.83421766       1.99825367      -0.41258066 
H      -0.56844512       0.81799021       0.09614873 
H       2.43916653       0.13159045      -2.77530227 
H       0.93974046       1.02972480      -3.18509930 
H       1.69112051      -0.00556271      -0.48975868 
H      -0.64614438      -0.04240775      -1.45006550 
H      -0.66237251       1.73223836      -1.41172154 
