12
 energy: -21.522099687599 gnorm: 0.000400691272 xtb: 6.2.3 (830e466)
C         1.45993906425183    0.95507006190513   -2.68225732381675
C         0.28402677603122    0.87578709398439   -1.70785434620468
C         0.81680774414541    0.90466715503722   -0.27473769411302
O         2.36740458955096    1.99896355650252   -2.30543488699188
O         1.84189049319724    2.74842692659456   -1.25249593737869
O         1.78032115488855    1.95300751444016   -0.10791683515830
H         0.00504131917302    1.06356317984821    0.44317680855468
H         2.03913208284217    0.02493197317861   -2.66598824046995
H         1.11247542138442    1.15040454990597   -3.70241847948077
H         1.33673418214733   -0.03010147594298   -0.03646911320305
H        -0.28067833008264   -0.03816384158575   -1.87784024615892
H        -0.37358449752952    1.73364330613196   -1.86556370557867
12
Properties=species:S:1:pos:R:3 6.2.3=T gnorm:=T pbc="F F F" -21.490103078090=T energy:=T 0.000660209532=T xtb:=T 830e466=T
C       2.36187324       0.64812648      -2.74920865 
C      -0.71917080       1.06848069      -0.96994707 
C       0.19964521       1.32444389      -0.05895983 
O       2.72954478       1.81324307      -2.03558758 
O       1.63928836       2.47925541      -1.49986628 
O       1.36939335       2.00910712      -0.19247575 
H       0.13431433       1.01542639       0.97551361 
H       3.30416870       0.28227227      -3.15094603 
H       1.67325629       0.88215508      -3.56468933 
H       1.92164656      -0.10652893      -2.09089697 
H      -1.60161715       0.51612880      -0.71281617 
H      -0.62283286       1.40808973      -1.98591995 
