12
 energy: -21.530392488296 gnorm: 0.000423324037 xtb: 6.2.3 (830e466)
C         1.39565784113626    0.99636864823533   -2.68709845004894
C         0.24881296644224    0.76198781893979   -1.69688323056456
C         0.79955021382667    1.00079976864184   -0.28607811007019
O         1.98650006710904    2.26336477498774   -2.44569269021759
O         2.49507788959632    2.28864394073430   -1.14201458011092
O         1.43578601341572    2.26745849459485   -0.22751001537178
H         0.00749275758471    1.06225571876524    0.46081553105587
H         2.15244058667219    0.20569420979943   -2.59535075692780
H         1.04496031588473    1.05454359479051   -3.71792766867987
H         1.51068405743226    0.21046474243572   -0.01046438226602
H        -0.13829219994649   -0.25038878069721   -1.79112253800396
H        -0.54937050915365    1.47869706877246   -1.89637310879422
12
Properties=species:S:1:pos:R:3 6.2.3=T gnorm:=T pbc="F F F" energy:=T xtb:=T 830e466=T -21.604818842553=T 0.000722722654=T
C       1.53006232       1.03710780      -2.35526181 
C       0.32639920       0.56747133      -1.51464828 
C       0.71730139       1.07025355      -0.11627828 
O       1.08747506       1.98878996      -3.26946423 
O       2.46583066       1.54506274      -1.44379276 
O       1.71946058       2.03679169      -0.33527490 
H      -0.08878457       1.58406726       0.40584630 
H       2.05443047       0.21571311      -2.86973652 
H       1.84243260       2.49157806      -3.59654793 
H       1.10356013       0.24941226       0.50271007 
H       0.19389732      -0.50973556      -1.54535318 
H      -0.56276515       1.06337780      -1.89789847 
