12
 energy: -21.522099705081 gnorm: 0.000399240212 xtb: 6.2.3 (830e466)
C         1.45582358105872    0.95206172910225   -2.68328586053251
C         0.30101887838482    0.81552813868346   -1.69018841886186
C         0.84774997373433    0.92580172964841   -0.26628522964871
O         2.28758954422284    2.07126381078405   -2.35045384637079
O         1.72190610537291    2.81009293227721   -1.31086050719951
O         1.73438415020673    2.04565321880750   -0.14384107147184
H         0.03535398284020    1.04679769692054    0.45829116407886
H         2.10268153250562    0.06817642437453   -2.64810190401159
H         1.08244418446448    1.09020570809195   -3.70362522334114
H         1.43735681539073    0.03880160955729   -0.00850829956579
H        -0.19674458465787   -0.14203280063481   -1.82583821915913
H        -0.41997416352351    1.61775980238763   -1.86291258391598
12
Properties=species:S:1:pos:R:3 0.000790809340=T 6.2.3=T gnorm:=T pbc="F F F" energy:=T -21.465098487992=T xtb:=T 830e466=T
C       1.86575090       1.17711230      -2.93237830 
C       1.02652573       0.82106473      -1.73911619 
C       1.12412890       1.56397657      -0.64335212 
O       2.89721079       2.07273102      -2.54039672 
O       2.33986544       3.12240146      -1.81438769 
O       1.91603204       2.67000494      -0.54886106 
H       0.62430121       1.38097742       0.29385000 
H       2.40371950       0.30715899      -3.31495070 
H       1.26004573       1.61242404      -3.74011104 
H      -1.59417322      -0.98863987       0.55146614 
H       0.38722187      -0.03929977      -1.79009880 
H      -1.86103888      -0.35980182       0.18272649 
