12
 energy: -21.604377211083 gnorm: 0.000811395272 xtb: 6.2.3 (830e466)
C         1.28005765720453    0.92691060577046   -2.80283387424953
C         0.14091742213800    1.09187623134031   -1.79821673110017
C         0.97089512277804    1.07543214826777   -0.51256490106821
O         2.18915710663083    0.04900419716631   -2.18038655313312
O         1.40443778180242    2.37513814935045   -0.24605462294824
O         2.03203686275539    0.20069618266034   -0.75858959186077
H         2.13942971544246    2.34107408188653    0.37664162426373
H         1.75487411468463    1.89699341871138   -3.00301896156802
H         0.98199132282131    0.45057469570011   -3.73679907086775
H         0.43323541864728    0.66134902920359    0.35519921620434
H        -0.39725278629070    2.02751319173297   -1.90660258792131
H        -0.54058973861420    0.24363806820977   -1.82226394575097
12
Properties=species:S:1:pos:R:3 6.2.3=T gnorm:=T pbc="F F F" energy:=T -21.539472416062=T xtb:=T 830e466=T 0.000560059865=T
C       1.56639232       0.21373838      -2.42180626 
C       0.73103289       0.87593334      -1.63387520 
C       1.31348634       0.78987968      -0.24611224 
O       2.58321756      -0.39002340      -1.77480264 
O       1.76856813       2.04907351       0.14789953 
O       2.36749653      -0.14187428      -0.38308588 
H       2.32318464       1.95859445       0.93155381 
H      -0.80091714       2.91260566      -3.88428639 
H       1.57681909       0.05730513      -3.48371513 
H       0.62186651       0.37990082       0.51118123 
H      -1.52971994       3.18192651      -3.91844300 
H      -0.13223693       1.45314020      -1.87999784 
