12
 energy: -21.579061447542 gnorm: 0.000396084931 xtb: 6.2.3 (830e466)
C         1.81650185232715    1.44181671866306   -2.26647361018603
C         0.62804430182118    0.14497871024866   -0.41232226425702
C         1.31628112962635    0.09414592513847   -1.73921656749617
O         1.36706217995178    2.57376808909791   -1.57009671369256
O        -0.02175723902426    2.78115574927778   -1.79935062496890
O         1.49572177788011   -0.90898578635406   -2.37919006763511
H        -0.06718148537983    3.69612405532580   -2.10906310925716
H         2.90357846216724    1.47614060659054   -2.14179532981993
H         1.58798852905384    1.51161246754920   -3.33809708891827
H         0.41034696709171   -0.85849023470103   -0.05937839481494
H        -0.29748717447704    0.70832223801281   -0.52359483613530
H         1.24999069896179    0.67911146115089    0.30265860718139
12
Properties=species:S:1:pos:R:3 0.000843900527=T 6.2.3=T gnorm:=T pbc="F F F" energy:=T xtb:=T 830e466=T -21.653329267001=T
C       1.29991246       1.57044125      -2.26274894 
C       0.56828390       0.09554235      -0.33761323 
C       0.98388123       0.14084231      -1.76756778 
O       2.37977410       2.03319425      -1.50231235 
O       0.14578382       2.33848911      -2.07690940 
O       1.08382125      -0.80100376      -2.50351381 
H       0.26480891       3.22229004      -2.44346664 
H       2.68058020       2.89002139      -1.82732724 
H       1.56979587       1.52218964      -3.33348995 
H       0.36449004      -0.92414259      -0.02610921 
H      -0.31522087       0.71967665      -0.21874850 
H       1.36317908       0.53215936       0.26388705 
