12
 energy: -21.571664040442 gnorm: 0.000591076272 xtb: 6.2.3 (830e466)
C         1.54346474102741    1.24177577216476   -3.03537409417339
C         0.25675027603418    0.78674511932786   -2.36112286634418
C         0.34358619902988    1.54583495048097   -1.04114573369937
O         2.40749204704989    1.59905191843002   -1.96517477954219
O         1.59295164551230    2.01937270526907   -0.89152548000187
O        -0.50910028513160    1.73358323218006   -0.23191101636498
H         1.97595717811814    0.20143446777660    2.06394446374652
H         2.06575138545779    0.46265894937512   -3.59033223547411
H         1.37059635144398    2.11091232715128   -3.68412552727861
H         1.74532922449568    0.87246267774859    1.74491063430233
H         0.24454023502378   -0.28213881819694   -2.14131674311975
H        -0.64822899806423    1.04849669829277   -2.90272662205066
12
Properties=species:S:1:pos:R:3 -21.604377772199=T 6.2.3=T gnorm:=T pbc="F F F" 0.000644148689=T energy:=T xtb:=T 830e466=T
C       1.41738029       1.38086589      -2.75337272 
C       0.48467667       0.48545014      -1.93956202 
C       0.95523941       0.88469673      -0.53915648 
O       2.63307542       1.38119645      -2.04161481 
O       2.32390342       1.13817355      -0.65807187 
O       0.23936029       2.01226242      -0.13351662 
H       0.86095088       0.07825499       0.20539900 
H       1.64300418       0.99784096      -3.74853127 
H       1.00767098       2.39785675      -2.81915433 
H       0.70731481       2.43772019       0.59455239 
H       0.68248857      -0.56924022      -2.12124206 
H      -0.56597491       0.71511215      -2.08162922 
