10
 energy: -20.588180436077 gnorm: 0.000805669852 xtb: 6.2.3 (830e466)
C         1.64634439492607    1.46829269493422   -2.98922569150865
C         0.94991489789822    0.36452212671095   -2.20598508141259
C         1.24779203485072    0.80178438691688   -0.77489435226054
O         2.66510797437848    1.94160679130233   -2.11867758542037
O         2.21447221592824    1.73554222572200   -0.79601356178251
O         0.74668619351050    0.42661952021767    0.23749053728586
H         2.15916730812689    1.13280182447212   -3.89030814897893
H         0.95381946933617    2.28427042509642   -3.23467920183325
H         1.39748481980284   -0.61815172599215   -2.36470084508158
H        -0.12078930875815    0.29950173061955   -2.37952606900746
10
Properties=species:S:1:pos:R:3 6.2.3=T gnorm:=T pbc="F F F" -20.637196278408=T energy:=T xtb:=T 830e466=T 0.000820921926=T
C       1.94712764       1.06718164      -3.22067485 
C       1.02276184       0.36661023      -2.28278350 
C       1.18662402       0.88007697      -0.82966405 
O       2.08099160       2.26693173      -3.24748070 
O       1.31226193       2.18859391      -0.71128488 
O       1.16918168       0.12608202       0.09602231 
H       2.53303433       0.41735059      -3.88941885 
H       1.47126074       2.62605423      -1.57917586 
H       1.14534950      -0.71422331      -2.29921943 
H      -0.00859328       0.61213198      -2.55284020 
