12
 energy: -21.571436173465 gnorm: 0.000599149448 xtb: 6.2.3 (830e466)
C         1.54162380982736    2.04681535557006   -2.64225151502344
C         0.97102007089184    1.08605326163390   -1.60825147543155
C         2.24285431205609    0.66830102778429   -0.87661694224388
O         2.75011763075931    2.52309368194936   -2.06643131320437
O         3.23677953683887    1.50743788835836   -1.21350892746229
O         2.40355045825495   -0.24088074858025   -0.12498002593952
H        -2.38269935343354   -0.07587494985172   -0.28522914224926
H         1.75380179882339    1.53570435418927   -3.59081030281113
H         0.93170249922244    2.93116880145199   -2.82565616748272
H        -1.82885614878321   -0.43920077712018    0.12066427477862
H         0.46207515776511    0.22389571092570   -2.03068209604049
H         0.30742022777800    1.57357639368809   -0.89213636688771
12
Properties=species:S:1:pos:R:3 6.2.3=T gnorm:=T pbc="F F F" 0.000838547846=T energy:=T -21.602380051015=T xtb:=T 830e466=T
C       1.04442319       2.50830166      -3.18847649 
C       0.43244349      -0.07951982      -0.15836937 
C       1.82702897       0.35640759      -0.49110641 
O       0.73763836       1.68968272      -2.08845199 
O       1.95890527       1.25984747      -1.48697463 
O       2.83390778      -0.01747721       0.03714576 
H       0.06887875       2.80993347      -3.56636499 
H       1.59203317       1.95509235      -3.95631662 
H       1.61793497       3.38726804      -2.88373727 
H       0.46795426      -0.83018959       0.62446869 
H      -0.04661845      -0.48102495      -1.04857326 
H      -0.14513976       0.78176827       0.17086659 
