12
 energy: -21.512716948470 gnorm: 0.000807341514 xtb: 6.2.3 (830e466)
C         1.68670136834751    1.42711998498860   -2.49693067010915
C         1.41338416192197    0.66170406926177   -1.22320113498791
C         2.32869835224433    0.02851335371076   -0.56513696335357
O         1.89006343491621    2.80130905008087   -2.29090936963626
O         0.65529265818686    3.41040783244987   -1.90424421424779
O         3.14219397123343   -0.58605493482418   -0.00753256358607
H         0.92713989344958    4.31877962225675   -1.72166883015406
H         2.62437714441966    1.10719440480273   -2.95588710406054
H         0.85560185116381    1.27860767384468   -3.19662706654376
H        -1.57910687299145   -0.99751741200007   -0.76573809941839
H        -1.98718965645814   -0.88258698843833   -0.11319280877253
H         0.43204369358462    0.77263334386439   -0.79484117512820
12
Properties=species:S:1:pos:R:3 6.2.3=T gnorm:=T pbc="F F F" -21.540059426623=T 0.000692184632=T energy:=T xtb:=T 830e466=T
C       1.45445898       1.38610634      -3.14181960 
C       0.48508654       0.20161017       0.34888942 
C       1.42870864      -0.57198228      -0.05882950 
O       0.99084716       2.69436310      -2.95113913 
O       0.51543561       2.83695217      -1.60862344 
O       2.28750605      -1.25634787      -0.44623178 
H       0.33031107       3.78315005      -1.56092881 
H       2.29089940       1.15585214      -2.47576525 
H       1.78729946       1.37550459      -4.17804502 
H       0.65569451       0.65361184      -2.99576852 
H      -0.16983261      -0.07602265       1.15005662 
H       0.33278518       1.15731242      -0.11770500 
