12
 energy: -21.571686492660 gnorm: 0.000267512477 xtb: 6.2.3 (830e466)
C         0.48195665744925    1.32325791531465   -2.37383925610567
C         0.54913710559288   -0.18091595566281   -2.15033561642592
C         1.48699202702164   -0.24890043646517   -0.94884975351578
O         0.77284327614097    1.89131569156656   -1.10423999078354
O         1.60230132397267    0.97893797614478   -0.41483492958972
O         2.06206288696294   -1.19230406549089   -0.50562002242467
H         1.82500494698933    4.11918192180314   -0.07460680907282
H         1.22618838287002    1.65292927534953   -3.11094369579103
H        -0.50408798288579    1.69792471591624   -2.64862150880491
H         2.34775008847474    4.65136518283262    0.14682863700204
H         0.94967341049093   -0.74083893462815   -2.99113107843416
H        -0.41062212309144   -0.61195328667964   -1.85971597605563
12
Properties=species:S:1:pos:R:3 6.2.3=T gnorm:=T pbc="F F F" energy:=T xtb:=T -21.600520912130=T 0.000333406225=T 830e466=T
C       0.83548510       1.61559973      -2.82195906 
C       0.51816972       0.48881265      -1.83414548 
C       1.71416962       0.23267274      -0.96084839 
O       0.93481930       2.06644061       0.28989289 
O       1.91221316       1.05969342       0.09515281 
O       2.53432941      -0.62419488      -1.11740827 
H       1.24703179       2.49236251       1.10149342 
H       1.70089611       1.35423369      -3.42604815 
H      -0.01442246       1.77595001      -3.47964089 
H       1.04191517       2.54172323      -2.29181196 
H       0.29973493      -0.43177002      -2.37511585 
H      -0.33514183       0.76847631      -1.21547106 
