12
 energy: -21.579051456664 gnorm: 0.000692496206 xtb: 6.2.3 (830e466)
C         1.65574205859688    1.34323403548845   -2.43816149420106
C         0.32475324555505    0.08538753015766   -0.65515136528374
C         1.58810261135763    0.17521788386842   -1.45086331134614
O         0.62764237136530    2.29097320956958   -2.33407298826697
O         0.77987949248770    3.05932411938963   -1.14342646942897
O         2.50893054104870   -0.59470532290294   -1.36144757904595
H         0.67317933192837    3.96955309423659   -1.45169288017498
H         2.64460206640604    1.81448792418645   -2.36377948517614
H         1.53908411473091    0.94405341903857   -3.45091040594983
H         0.30546562629906   -0.83270961532614   -0.07599291625190
H        -0.53291744900591    0.13965174575902   -1.32188534133325
H         0.27481598923027    0.94542197653470    0.01148423645893
12
Properties=species:S:1:pos:R:3 6.2.3=T gnorm:=T pbc="F F F" energy:=T 0.000201242397=T 830e466=T xtb:=T -21.540058627033=T
C       1.21723059       1.68746170      -3.11968732 
C       0.73491697      -0.13797113       0.20117634 
C       1.67502854      -0.77389864      -0.40483408 
O       0.82725190       2.93681567      -2.62001665 
O       0.45626249       2.80084303      -1.24460729 
O       2.52709400      -1.33094098      -0.97020265 
H       0.32352576       3.72006109      -0.98005384 
H       2.09194320       1.29874244      -2.59049364 
H       1.46761675       1.88860964      -4.15952907 
H       0.18537966      -0.57589624       1.00970218 
H       0.40048385       0.96230204      -3.06317657 
H       0.48254629       0.86376141      -0.09417741 
