12
 energy: -21.522099690440 gnorm: 0.000400514125 xtb: 6.2.3 (830e466)
C         1.36541867041337    1.01193160123392   -2.71836995040205
C         0.26761077619713    0.89266105826844   -1.66047754783979
C         0.91007194905523    0.84407088079509   -0.27362186568969
O         2.31224017709776    2.02736915960847   -2.36114878197000
O         1.87862316230104    2.72686800060831   -1.23456879022552
O         1.89578334533439    1.87503362588412   -0.12973254394891
H         0.15827427044155    0.97235617750695    0.51247313957885
H         1.93259155307330    0.07736353986998   -2.79432600332236
H         0.94241421109973    1.26227637533854   -3.69715565165571
H         1.43586538575035   -0.10569876374574   -0.12402002260589
H        -0.31958175866134   -0.00679268679419   -1.83159484897587
H        -0.38981174210250    1.76278103142611   -1.72315713294307
12
Properties=species:S:1:pos:R:3 -21.604377629772=T 6.2.3=T gnorm:=T pbc="F F F" energy:=T 0.000377418458=T xtb:=T 830e466=T
C       1.27654004       1.43128330      -2.41135907 
C       0.11349650       0.92293853      -1.55662861 
C       0.81197768       0.93502964      -0.19799807 
O       2.05944689       0.33943144      -2.79234863 
O       1.97463727       2.33025087      -1.60336092 
O       1.64636491       2.06937878      -0.22731644 
H       0.13571151       1.07072132       0.64608666 
H       2.92622424       0.65571682      -3.07196318 
H       0.95719155       2.00464690      -3.29626730 
H       1.40682119       0.02104232      -0.06719811 
H      -0.20228698      -0.06632407      -1.87042540 
H      -0.71662480       1.62610414      -1.58692092 
