12
 energy: -21.512718049626 gnorm: 0.000817816097 xtb: 6.2.3 (830e466)
C         1.87988740678570    2.13473586494537   -2.35868063269662
C         1.47609931112496    1.00628793819459   -1.43872110394729
C         1.00281276792311   -0.12130639871481   -1.85772872425281
O         0.89555744014958    3.12792450171682   -2.48807074796609
O         0.77875136235272    3.84496612950006   -1.25657863453638
O         0.62397440386618   -1.15199794312096   -2.23867525966156
H        -0.02256741796934    4.36356497334010   -1.39963491230081
H         2.81253022023597    2.58424751507500   -1.99704957956271
H         2.00730304811978    1.78171546297139   -3.38395999905847
H        -0.34262442916661   -2.72080789952636    0.76557114725260
H        -0.20633867845176   -2.73002678502927    0.00111403132228
H         1.48381456502818    1.22049664065199   -0.38348558458737
12
Properties=species:S:1:pos:R:3 6.2.3=T gnorm:=T 0.000476135637=T -21.557268091112=T pbc="F F F" energy:=T xtb:=T 830e466=T
C       1.46053108       1.63206896      -2.10525169 
C       1.00337293       0.87474845      -0.89407289 
C       0.77156801      -0.42966300      -0.89008192 
O       0.73781803       2.81598930      -2.33692765 
O       1.04279311       3.77454109      -1.31633195 
O       0.94902805      -1.21056102      -1.99715973 
H       0.62180536       4.57042339      -1.66374437 
H       2.53267637       1.86569054      -2.02444968 
H       1.28434881       1.04540369      -3.00947402 
H       0.44527333      -0.93545932       0.01056067 
H       0.67966279      -2.11491332      -1.81280374 
H       0.86032215       1.45153125       0.00383696 
