12
 energy: -21.530392488465 gnorm: 0.000423114870 xtb: 6.2.3 (830e466)
C         1.18482956832507    1.30934080270882   -2.72159950744041
C         0.53295373594793    0.40646812590403   -1.66775274817542
C         0.69067567396480    1.09512466735965   -0.30702131533825
O         2.50881210090164    1.63020851622549   -2.32566463430184
O         2.46726029132582    2.31009091837563   -1.10300337728219
O         2.05228817788539    1.43230516582252   -0.09495701453780
H         0.06811714319484    1.99858741589129   -0.25722544413249
H         1.30523428248844    0.80374195948300   -3.68016856496618
H         0.60011247301430    2.22920786344862   -2.85670765808530
H         0.44520760496077    0.43091963232143    0.52217055595595
H         1.05239470118702   -0.55285280429717   -1.64655575904828
H        -0.51848575319601    0.24674773675668   -1.89710453264780
12
Properties=species:S:1:pos:R:3 6.2.3=T gnorm:=T pbc="F F F" -21.490104137743=T energy:=T xtb:=T 0.000875932927=T 830e466=T
C       1.28284293       2.16264299      -3.04641979 
C       0.04105950      -0.11246572      -0.56103992 
C       1.30784309       0.04531427      -0.22979687 
O       1.92822774       2.74478269      -1.93161741 
O       1.39091012       2.33195864      -0.72300708 
O       2.06258080       1.17870099      -0.25510757 
H       0.21573396       2.39799869      -3.05681742 
H       1.42757708       1.07821342      -3.07846687 
H       1.77364783       2.62511477      -3.90010955 
H       1.94754665      -0.74635161       0.13603873 
H      -0.42625946      -1.07457207      -0.48356722 
H      -0.56231023       0.70855295      -0.90567902 
