10
 energy: -20.529764247467 gnorm: 0.000946234097 xtb: 6.2.3 (830e466)
C         1.34786676517791    1.55973338646959   -2.55879734790507
C         1.08166056070215    0.46496297301038   -1.55253880987169
C         1.90210935313003    0.19729589073923   -0.58702002104179
O         0.84159883320712    2.81097627473385   -2.16330794340887
O         1.65167668174382    3.33311965831604   -1.10922767306463
O         2.66104657184329   -0.07943355982483    0.24594384077221
H         1.11302567594248    4.06358412728348   -0.77908779891527
H         2.42159437944261    1.64505456891495   -2.75828594997370
H         0.80997426552064    1.35890575266918   -3.48745014559837
H         0.10723691328995    0.00889092768812   -1.55592815099275
10
Properties=species:S:1:pos:R:3 6.2.3=T gnorm:=T -20.609570049440=T pbc="F F F" 0.000670543370=T energy:=T xtb:=T 830e466=T
C       1.59337367       2.08864569      -1.92807066 
C       1.15636337       0.91671867      -1.04835237 
C       1.93584073      -0.06708396      -0.74748956 
O       0.76708573       2.17198190      -3.06198062 
O       1.51411058       3.28986759      -1.25549816 
O       2.66043636      -0.94517090      -0.51474512 
H       0.58613674       3.55527167      -1.22401702 
H       2.64847976       1.96130126      -2.20870778 
H       0.92379194       1.42735728      -3.64993819 
H       0.15217111       0.96420079      -0.66690052 
