12
 energy: -21.604378088842 gnorm: 0.000252416818 xtb: 6.2.3 (830e466)
C         1.33761959774956    1.19152141050615   -2.80001849521530
C         0.16733664172366    0.97208801158885   -1.84289938419692
C         0.95799291228522    0.90311509671109   -0.53461722385270
O         2.38687099576617    0.41189684033342   -2.27605778185500
O         1.12675758070867    2.20092830424586   -0.04725185108227
O         2.17257758223942    0.29517966016569   -0.85846085741605
H         1.84803914011797    2.20474189046391    0.59288510050160
H         1.61795511222314    2.25330978992572   -2.82150311239112
H         1.15722891909707    0.82692161328765   -3.81127507052714
H         0.49243493464200    0.26115560750735    0.23016837212765
H        -0.33462409218542    0.02561710995302   -2.03433746734448
H        -0.54098932436747    1.79364466531116   -1.83202222874834
12
Properties=species:S:1:pos:R:3 6.2.3=T gnorm:=T pbc="F F F" -21.603168889337=T energy:=T 0.000846071126=T xtb:=T 830e466=T
C       2.19016840       1.61307999      -2.70305226 
C      -0.38184501       1.01248366      -0.61012416 
C       1.10682257       0.87122007      -0.87998950 
O       2.42996588       0.24608230      -2.56567783 
O       1.67080405       2.03215380      -1.46919037 
O       1.30820548      -0.17101501      -1.81122638 
H      -0.53926056       1.82424389       0.09246513 
H       3.14181337       2.11090672      -2.90191396 
H       1.46419858       1.81663246      -3.51083294 
H       1.65999478       0.67274835       0.05503957 
H      -0.75696371       0.08343132      -0.19313512 
H      -0.90470382       1.22815244      -1.53775218 
