12
 energy: -21.579058625528 gnorm: 0.000573590578 xtb: 6.2.3 (830e466)
C         1.72182956377890    1.11246909101287   -2.41724294511345
C         0.09811363155672    0.34001435767369   -0.60057301017092
C         1.39366462901565    0.10690560699608   -1.31060127447426
O         0.89676528628906    2.24529108419269   -2.47619445438620
O         1.14711711235015    3.10058976008267   -1.36569261365519
O         2.15208633343907   -0.79665546677861   -1.07158547639043
H         1.28275922891220    3.96633332853277   -1.77506608108568
H         2.78149323296015    1.39052655445285   -2.34224822943467
H         1.55987528484936    0.62385465304196   -3.38362825262541
H        -0.11665199932183   -0.48231747908598    0.07523146236999
H        -0.70187625439423    0.46191820601397   -1.32769655610044
H         0.17420395056483    1.27106030386506   -0.04030256893324
12
Properties=species:S:1:pos:R:3 0.000889188245=T 6.2.3=T gnorm:=T pbc="F F F" -21.618353357275=T energy:=T xtb:=T 830e466=T
C       2.01017515       0.40595249      -2.58241927 
C       0.23382634       0.36801938      -0.75586007 
C       1.54417013      -0.14860889      -1.23727132 
O       1.71905904       1.48378045      -3.02415870 
O       0.60225408       3.47180050      -1.25374924 
O       2.24719540      -0.94008069      -0.65960342 
H       0.64350929       4.41315675      -1.43171646 
H       2.68959768      -0.28128624      -3.11867006 
H       0.96474685       3.02336379      -2.02947253 
H      -0.06403596      -0.13678371       0.15825982 
H      -0.52418740       0.23983844      -1.52631215 
H       0.32306940       1.44083771      -0.57462661 
