12
 energy: -21.579057066692 gnorm: 0.000915856237 xtb: 6.2.3 (830e466)
C         1.75859842124690    1.31437076279043   -2.36690991648112
C         0.21159371931446    0.11441405907874   -0.72153910346613
C         1.55888445089172    0.17053238839986   -1.36926510693789
O         0.74381370084657    2.28231601005275   -2.39868776522538
O         0.76699467223328    3.06677443869283   -1.21136858351724
O         2.45059564060943   -0.60973332048092   -1.15978764699964
H         0.76250518881836    3.97542401874244   -1.54110125381413
H         2.74215222460688    1.77003781697330   -2.19176847508858
H         1.74764491072919    0.89418218509220   -3.37778125468732
H         0.11836791652994   -0.78447649321523   -0.11941441245455
H        -0.56318709508688    0.14975916485130   -1.48441702740160
H         0.09133624926015    0.99629896902228   -0.09385945392640
12
Properties=species:S:1:pos:R:3 0.000418898775=T 6.2.3=T gnorm:=T pbc="F F F" energy:=T -21.568030244517=T xtb:=T 830e466=T
C       1.05903850       0.88908920      -2.05092584 
C       0.04730361       0.35542789      -1.03242868 
C       2.47871032       0.66029964      -1.56054011 
O       0.83813079       2.22904511      -2.41732112 
O       1.03138801       3.08742344      -1.28804335 
O       2.90257365      -0.39451281      -1.18789668 
H       0.56246992       3.88651290      -1.56055764 
H       3.09688107       1.57488214      -1.57021070 
H       0.93959549       0.36635829      -3.00906514 
H       0.28757150      -0.67829576      -0.80379884 
H      -0.96036972       0.41815130      -1.43415956 
H       0.10600684       0.94551865      -0.12095234 
