12
 energy: -21.513492878695 gnorm: 0.000670100134 xtb: 6.2.3 (830e466)
C         1.82311495646609    1.36922520154594   -2.28469248662193
C         2.41964086474893    0.52179159464126   -1.18526665768834
C         2.38799881425990   -0.77074237750589   -1.18516905450893
O         0.53268259857394    1.83777700817292   -1.98848874702003
O         0.60706832801119    2.81233279870000   -0.94577507630681
O         2.40742077397722   -1.93218017034371   -1.21556819231809
H        -0.31762536903718    2.88975636221095   -0.67614359314821
H         2.48494039645050    2.21846916717591   -2.49067084524137
H         1.66981974877395    0.78478266191903   -3.19387062896862
H        -2.48349449877967    1.35521762745206   -1.02599441620816
H        -1.91018346846747    1.20873946873913   -1.53344827113181
H         2.76792685502506    1.04472065729206   -0.31081203083567
12
Properties=species:S:1:pos:R:3 6.2.3=T gnorm:=T -21.619199451567=T pbc="F F F" energy:=T 0.000813055672=T xtb:=T 830e466=T
C       1.51927881       1.24622238      -2.47358730 
C       1.90295466       0.53294797      -1.19987204 
C       2.39092994      -0.66261124      -1.15917917 
O       0.11789844       1.42266047      -2.58318562 
O      -0.33777728       2.49931222       0.02870460 
O       2.85941833      -1.72699207      -1.12799287 
H      -0.27580249       2.25860351      -0.90776085 
H       1.93164103       2.25809060      -2.47151784 
H       1.90458162       0.70395226      -3.34472067 
H      -0.97559322       3.21268377       0.08592709 
H      -0.30760373       0.55736735      -2.60453188 
H       1.65938389       1.03765279      -0.27818346 
