12
 energy: -21.522099996741 gnorm: 0.000394914189 xtb: 6.2.3 (830e466)
C         1.15720380057573    1.36313799141792   -2.73567463488469
C         0.45186210826296    0.56223960863677   -1.64026532896538
C         0.70361111100534    1.23098856980515   -0.28837967531468
O         2.50353672390040    1.67506740340457   -2.35469482068593
O         2.84324396292951    1.01491093619408   -1.17364655555608
O         2.09333178363404    1.54079464236054   -0.12099984103388
H         0.16615845382341    2.18380740153751   -0.22255532786383
H         1.18385281158000    0.80290558865649   -3.67651317771891
H         0.65522210713250    2.32367671492607   -2.89716774204506
H         0.39374320381515    0.57997388642401    0.53601464359280
H         0.85345187706728   -0.45341843771568   -1.62038840711572
H        -0.61621794372633    0.51591569435257   -1.84062913240864
12
Properties=species:S:1:pos:R:3 6.2.3=T gnorm:=T pbc="F F F" -21.591718255193=T energy:=T 0.000186414207=T xtb:=T 830e466=T
C       1.84077631       1.50448254      -2.75392598 
C       0.13549226       0.55016762      -1.48832544 
C       0.71273923       1.16271863      -0.19624756 
O       0.45124046       1.38368503      -2.58278150 
O       2.55079072       1.24149750      -1.58181931 
O       1.88906154       1.88865002      -0.50787436 
H       0.04026827       1.90984464       0.23073081 
H       2.22700661       0.75899076      -3.46929925 
H       2.01916783       2.52177527      -3.13091020 
H       0.92174994       0.37844170       0.54259804 
H       0.55169519      -0.45460376      -1.64796993 
H      -0.95098837       0.49435006      -1.44907532 
