12
 energy: -21.604376834123 gnorm: 0.000836418511 xtb: 6.2.3 (830e466)
C         0.97348519661934    2.31052805791245   -2.08892353621907
C         0.24432590789200    0.97141994978357   -1.99424253653928
C         1.27326651338153    0.21431124918186   -1.15167308645855
O         2.33718990216944    1.97639794103445   -2.19127478342550
O         1.00917529665803    0.45558512580402    0.19825820432170
O         2.52039194845568    0.70456469931200   -1.54438007856300
H         1.79523055729619    0.24105133244594    0.71495561997616
H         0.72820111100704    2.88485363470530   -2.98243006373492
H         0.78787011389094    2.91017324043216   -1.18746915531532
H         1.29604966510809   -0.86888966489125   -1.35212511138247
H         0.13530723571011    0.50498365012632   -2.97160556207540
H        -0.71129344818839    1.03522078415318   -1.48468991058438
12
Properties=species:S:1:pos:R:3 -21.565056870233=T 6.2.3=T gnorm:=T pbc="F F F" 0.000315126536=T energy:=T xtb:=T 830e466=T
C       0.81393590       2.30256794      -2.53151274 
C      -0.16633215       1.63725054      -3.10999466 
C       1.44210008       0.04640781      -0.35049132 
O       1.84170785       1.81661919      -1.78350440 
O       2.39055071       0.31218356       0.62215861 
O       1.84000628       0.39781393      -1.64298085 
H       2.64926401       1.24120256       0.56128250 
H       0.93596084       3.37643878      -2.57383980 
H       0.47603853       0.52867051      -0.10874501 
H       1.31795818      -1.03955209      -0.39766006 
H      -0.23461837       0.56597690      -3.04589034 
H      -0.91737188       2.15462038      -3.67442194 
