12
 energy: -21.522099688644 gnorm: 0.000400707794 xtb: 6.2.3 (830e466)
C         1.36512160102639    0.78069229013485   -2.67671502641700
C         0.27910938983729    0.82776880887600   -1.60114521798206
C         0.92882984650488    1.09674906533030   -0.24318599014896
O         2.25975906951764    1.89367919137230   -2.54984782100175
O         1.79639022310844    2.78700794159383   -1.58349560284304
O         1.86232767576020    2.18142713662293   -0.32833589950889
H         0.17471389389337    1.34770314227673    0.51044306440987
H         1.97928081513984   -0.12024074477635   -2.56703659327769
H         0.92596231211182    0.80266473343306   -3.67984014858766
H         1.50221395844201    0.22465748302325    0.09081990517440
H        -0.26224426387980   -0.11530254881367   -1.57572706203244
H        -0.42197452146208    1.63317350092678   -1.83146360778480
12
Properties=species:S:1:pos:R:3 6.2.3=T gnorm:=T pbc="F F F" energy:=T 0.000227359697=T xtb:=T 830e466=T -21.591718171884=T
C       2.34248827       1.05035552      -2.31090157 
C      -0.25623358       1.44339595      -1.29935737 
C       0.91689430       0.86948398      -0.47916390 
O       1.15595668       0.74460999      -2.97914578 
O       0.18292647       1.71112211      -2.61974120 
O       2.13085164       1.39971581      -0.96653391 
H       0.85134166       1.16499330       0.56648310 
H       2.87446610       1.89569931      -2.77077654 
H       2.94104673       0.12799420      -2.40051164 
H       0.92811957      -0.22720200      -0.55338564 
H      -1.10190268       0.74393710      -1.30325122 
H      -0.57646516       2.41587472      -0.91924434 
