12
 energy: -21.538939710784 gnorm: 0.000793924119 xtb: 6.2.3 (830e466)
C         0.78744997574108    1.57774375427822   -3.37036477418100
C         0.73960608600787   -0.28333785071350    0.03653281922551
C         1.93330792404954    0.07411381337157    0.36326494107934
O         0.35481577886869    2.11232842927779   -2.14771858465336
O         1.45520218550617    2.77909331262527   -1.52505619704902
O         3.00827768721393    0.40059611874776    0.66318774008797
H         1.03230734974870    3.24332102923713   -0.79223509483732
H         1.58717555277492    0.84740195376876   -3.21880010702524
H         1.13123771176233    2.36564356014055   -4.04558630529217
H        -0.09652170144617    1.09138091803506   -3.77905463219398
H         0.29290963754300   -1.17396409072886    0.43156928650594
H         0.16333181222833    0.30557905195856   -0.65153909166975
12
Properties=species:S:1:pos:R:3 -21.513694444084=T gnorm:=T pbc="F F F" energy:=T 0.000370050228=T xtb:=T 6.2.3=T 830e466=T
C       0.69026411       1.46486280      -2.18625271 
C       0.75786666       0.77096845      -0.84557081 
C       1.84727510       0.72275282      -0.14549577 
O       0.36127565       2.82853298      -2.08692188 
O       1.48269649       3.54403303      -1.56641626 
O       2.83635240       0.62117396       0.45285018 
H       1.10300421       4.41241867      -1.38161369 
H       0.99377209      -1.60748821      -2.00684145 
H       1.63823177       1.35394270      -2.72424133 
H      -0.12762245       1.05607174      -2.78322786 
H       0.97694711      -2.29744090      -2.36999527 
H      -0.17096314       0.47007194      -0.39207317 
