7
 energy: -12.217431813697 gnorm: 0.000680964147 xtb: 6.2.3 (830e466)
C         1.50185517579613    1.29098278133528   -3.02649510313818
O         1.50451036861760    2.61264869762487   -2.56346572655974
O         0.25102845698941    2.88065047762127   -1.92859776654304
H         0.37526007489417    3.78392165169323   -1.60963472658836
H         2.47716692121047    1.17001370515967   -3.49427345408039
H         0.70804804134877    1.12964018757673   -3.76148347053116
H         1.38792096114344    0.58173249898896   -2.20144975255914
7
Properties=species:S:1:pos:R:3 6.2.3=T gnorm:=T pbc="F F F" energy:=T 0.000890365082=T -12.292309053233=T 830e466=T xtb:=T
C       0.92060555       1.55116561      -2.79788375 
O       2.05146476       2.06086365      -3.42018253 
O       0.23361934       2.49916275      -2.02391983 
H       0.82851201       3.22788665      -1.81221754 
H       2.75638606       2.20110325      -2.77578012 
H       0.24325791       1.22622638      -3.59505865 
H       1.17194437       0.68318171      -2.16035758 
