12
 energy: -21.539795886965 gnorm: 0.000684113337 xtb: 6.2.3 (830e466)
C         0.90004491861129    1.02568511464719   -3.91819565304325
C         1.73668290937821    1.00439461892645    0.55983370651476
C         0.74354944707425    0.54519328782932    1.24417145162503
O         1.21976160068514    1.11716685319926   -2.55710099909034
O         0.44894668570679    2.16952421518116   -1.97192433414255
O        -0.16917151687622    0.14762104844592    1.84088857711225
H         0.61565470110910    2.02988708344855   -1.02231925136403
H         1.53125783988961    0.22071818028443   -4.29024503132108
H         1.13018791405300    1.95813772048581   -4.44082668855435
H        -0.15506292592447    0.77551677635822   -4.06080185034828
H         2.09732113797894    0.48401808101665   -0.30858572791149
H         2.29002728830153    1.86185702017556    0.88921580051346
12
Properties=species:S:1:pos:R:3 6.2.3=T gnorm:=T -21.505092306440=T pbc="F F F" energy:=T xtb:=T 830e466=T 0.000739446498=T
C       1.07567114       1.15034591      -3.57450299 
C       0.81392865      -0.08377661      -0.51142746 
C       1.01271440       0.31936491       0.71980205 
O       1.11068100       1.48367497      -2.21727310 
O       0.17886909       0.64038589      -1.46741861 
O       1.16971153       0.56875433       1.83781804 
H       1.29553904       3.32715035      -0.46033284 
H       1.42415190       0.12726435      -3.75327781 
H       1.76029454       1.85790371      -4.04151856 
H       0.07227570       1.27659584      -3.99036102 
H       1.26160960      -1.03545206      -0.79180375 
H       1.21375342       3.70750841       0.21440604 
