7
 energy: -12.217432807401 gnorm: 0.000500236800 xtb: 6.2.3 (830e466)
C         1.41446935411565    1.17956690085313   -2.87245595848230
O         0.43390126473650    2.11551379995918   -2.52226783581962
O         1.07833220653675    3.30883131471169   -2.06808132492702
H         0.32809979609931    3.88785920073150   -1.88426425163685
H         2.04323630294719    0.92360787519381   -2.01469280925836
H         2.04130255862570    1.54765358060686   -3.68990501993276
H         0.84775851693891    0.30846732794382   -3.19632279994310
7
Properties=species:S:1:pos:R:3 6.2.3=T gnorm:=T 0.000509275829=T pbc="F F F" -12.297876105927=T energy:=T xtb:=T 830e466=T
C       1.56887169       1.80459558      -2.69169624 
O       0.48585696       1.14018432      -3.26412164 
O       1.17979896       2.80735054      -1.80601766 
H       0.64422158       3.45621754      -2.27922677 
H       2.20226160       1.12410127      -2.10597317 
H       2.14662385       2.20658321      -3.53558034 
H      -0.04053465       0.73246753      -2.56537417 
