12
 energy: -21.539819169180 gnorm: 0.000917866171 xtb: 6.2.3 (830e466)
C         1.68253929333715    1.28070028075587   -3.18265985494163
C         0.10844995666689    0.40124312184678    0.42832935572762
C         0.94035750896650   -0.51517035614072    0.07897179420051
O         0.63298198006895    2.14080685109864   -2.81501045475996
O         0.94976229458572    2.83558653626596   -1.62032596183698
O         1.70885627441673   -1.32440495126831   -0.25777837534400
H         1.06907114689762    3.75482305664550   -1.89931690634243
H         2.59718533841907    1.83729330346862   -3.41090982053291
H         1.31255986656450    0.78817471416448   -4.07968112589337
H         1.88513260229251    0.53917916533732   -2.40676435555329
H        -0.64577157339411    0.23460934492294    1.17053867581805
H         0.14818531117918    1.36713893290230   -0.04110297054104
12
Properties=species:S:1:pos:R:3 6.2.3=T gnorm:=T pbc="F F F" -21.579056452091=T energy:=T xtb:=T 0.000756001185=T 830e466=T
C       1.75048095       0.34324125      -2.58705428 
C       0.30243438       1.09510873      -0.61974228 
C       1.37964276       0.14583823      -1.15138532 
O      -0.02570898       2.17277321      -1.45505857 
O       1.04650223       3.10917317      -1.50013480 
O       1.85884675      -0.68918534      -0.42977589 
H       0.61096616       3.95598070      -1.33467692 
H       2.23016188       1.31554487      -2.68970274 
H       0.85127244       0.35699185      -3.19904195 
H       2.42756328      -0.43981051      -2.91497473 
H      -0.63573980       0.53682145      -0.53642277 
H       0.59288795       1.43750239       0.38226025 
