12
 energy: -21.541629120147 gnorm: 0.000529694046 xtb: 6.2.3 (830e466)
C         1.29224227354017    0.45743672045793   -3.11198149365966
C         0.29668500905276    0.65065057397190    0.56574883929612
C         1.14606767356154    1.55022961145549    0.21395089501176
O         0.59564390610939    1.52231025231818   -2.51131658814895
O         1.23143042051606    2.74934483809465   -2.80342196241642
O         1.93124293528506    2.36044980345685   -0.08233888183135
H         1.69413739198554    2.98600192284409   -1.97917600048035
H         2.30478399238987    0.36195547329458   -2.70589913677798
H         1.34092621709569    0.57856395759991   -4.19688620749281
H         0.70669480409756   -0.42524507558328   -2.86177206573243
H        -0.47330501179112    0.33227371210314   -0.10852484999594
H         0.32265038815734    0.21592820998680    1.54582745222780
12
Properties=species:S:1:pos:R:3 6.2.3=T gnorm:=T pbc="F F F" 0.000895250876=T energy:=T xtb:=T -21.561957766251=T 830e466=T
C       1.07739476       0.78798050      -2.67209513 
C       0.54874250       0.52490714       0.11708299 
C       1.75790799       0.59383360      -0.41038557 
O       0.21659689       1.88105748      -2.59290781 
O       0.82242034       3.04744636      -3.11526948 
O       2.09948626       0.78401463      -1.71954488 
H       1.13027553       3.53748099      -2.33771385 
H       2.66013156       0.50656522       0.17925932 
H       1.58180733       0.75635483      -3.64480104 
H       0.41160115      -0.07808530      -2.55066033 
H      -0.35122530       0.63679551      -0.46062349 
H       0.43406098       0.36154903       1.17186926 
