12
 energy: -21.539702867722 gnorm: 0.000686570948 xtb: 6.2.3 (830e466)
C         2.06952963420895    1.71324245236928   -2.84888274407017
C        -0.23238862413344   -0.16009365573275   -0.25553570442236
C         0.89492173536819   -0.75665653926643   -0.08538548853750
O         1.03895758339571    2.66605158815047   -2.79979420331482
O         0.54199050282491    2.78439128179226   -1.47162791046558
O         1.92440235651729   -1.28388735244360    0.05302285352949
H         0.57961635603445    3.73479174478596   -1.29802538662182
H         2.91422625564292    2.00168711680804   -2.21580520167692
H         2.37034035583768    1.70967706803177   -3.89487068522517
H         1.71342447593187    0.72184516530434   -2.55749405407322
H        -1.16665556454179   -0.65692141507611   -0.08751675923951
H        -0.25917506708678    0.86576254527835   -0.57398471588270
12
Properties=species:S:1:pos:R:3 6.2.3=T gnorm:=T pbc="F F F" -21.513449786211=T energy:=T xtb:=T 830e466=T 0.000724739706=T
C       1.97853783       1.33427832      -1.62957723 
C       1.67067261       0.76794976      -0.26344143 
C       1.32398546      -0.46232875      -0.06510941 
O       0.89081529       2.00779607      -2.21065342 
O       0.65259419       3.22699479      -1.50347349 
O       1.06641880      -1.58117020       0.11579063 
H      -0.20980281       3.49567082      -1.84419477 
H       2.83603333       2.01401241      -1.55898955 
H      -0.55785239       0.50633406      -3.47984140 
H       2.18956923       0.53879733      -2.34744377 
H      -1.07551328       0.01970057      -3.79932590 
H       1.62373174       1.47185481       0.55035975 
