12
 energy: -21.541652742100 gnorm: 0.000522062952 xtb: 6.2.3 (830e466)
C         1.18575335635837    1.10225122997506   -3.25685673801018
C         0.30206220305166    0.00095992139328    0.31789320494938
C         1.29715894743073    0.80676665472881    0.19868981778707
O         0.57957778463861    1.86976880458587   -2.24467607299046
O         1.26921369905972    3.08896205779294   -2.07463815333499
O         2.21195533585394    1.52569603349712    0.10836659793019
H         1.84383174892144    2.94119037488141   -1.30122894339502
H         2.20755984592976    0.81712883069973   -2.98407395097761
H         1.19545228686452    1.63917428932279   -4.20849732907636
H         0.56122841670649    0.21447944088293   -3.33619904093053
H        -0.49898808119935    0.01868470202096   -0.39346303795228
H         0.23459445642625   -0.68515233982051    1.13878364598728
12
Properties=species:S:1:pos:R:3 6.2.3=T gnorm:=T -21.562608679911=T pbc="F F F" energy:=T xtb:=T 0.000979333879=T 830e466=T
C       0.69677554       1.03601550      -2.31996902 
C       0.30620278      -0.30586902      -0.25494766 
C       1.06498201       0.54107070      -0.93734738 
O       0.63649294       2.44125569      -2.43029449 
O       1.96658880       2.98325289      -2.42634830 
O       2.24785912       0.98846112      -0.43919331 
H       1.80996704       3.91029143      -2.64691149 
H       2.57549437       1.70811802      -0.99812372 
H       1.40764022       0.64126512      -3.06088755 
H      -0.31388923       0.72135254      -2.58360395 
H      -0.61980343      -0.67169988      -0.65260794 
H       0.61108984      -0.65360410       0.71433480 
