12
 energy: -21.638942395963 gnorm: 0.000238466287 xtb: 6.2.3 (830e466)
C         1.64052760537687    2.07838173797864   -2.26182712211631
C         0.22438175984285    0.56168232644589   -1.13549667211219
C         1.11215086275565   -0.63976991991832   -0.91267602639619
O         0.49256433137369    1.27486785374903   -2.32078023461411
O         1.47790665182853    3.17386808516248   -1.41527091548525
O         2.03001526583537   -0.97792401725271   -1.59993442594816
H         0.75803040549714    3.72478883320479   -1.74681764934415
H         1.82464059352904    2.38487951922178   -3.29982300442750
H         2.50661018616135    1.52693151092050   -1.87983435483569
H         0.82299829919308   -1.20464865769907   -0.00216744608314
H        -0.81297621963034    0.22032480169505   -1.20675657808099
H         0.31214025823678    1.21671792649202   -0.25440557055624
12
Properties=species:S:1:pos:R:3 6.2.3=T gnorm:=T pbc="F F F" 0.000683163413=T energy:=T -21.589468762728=T xtb:=T 830e466=T
C       2.15598397       1.25414492      -1.97498452 
C      -1.26769531       1.37654152      -1.21893506 
C       2.55777000      -0.06344142      -1.36832013 
O      -0.93907919       1.80194721      -2.28598678 
O       1.64588946       2.09107773      -0.96615385 
O       3.05987055      -0.97264793      -1.96332311 
H       1.26645173       2.87592857      -1.37720204 
H       3.03562457       1.70015225      -2.46298371 
H       1.40354476       1.06169006      -2.75350500 
H       2.33424419      -0.11318861      -0.28690735 
H      -1.54802856       0.32271186      -1.06109750 
H      -1.31558618       2.00518384      -0.31639094 
