12
 energy: -21.640699383128 gnorm: 0.000651099405 xtb: 6.2.3 (830e466)
C         1.06427506829480    2.16555536513440   -2.47341663801556
C         0.21258347155826    0.29904340356716   -1.32281611767599
C         1.35303720490210    0.00648956733575   -0.37298505727703
O         0.07123015767599    1.67154952413546   -1.61942737954622
O         2.33174038878109    2.17403108801151   -1.90376194950934
O         1.96739588859007   -1.01930873630803   -0.34056836875777
H         2.34749560091580    2.78139415076550   -1.15385074173426
H         0.72680460027975    3.17431331565272   -2.74726482871322
H         1.15189905083115    1.54277372049622   -3.37516300878189
H         1.55240686894919    0.83382781535284    0.33430939334980
H         0.32741000403301   -0.29624779474287   -2.23849149319612
H        -0.71726830481136    0.00666858059920   -0.82236381014218
12
Properties=species:S:1:pos:R:3 6.2.3=T gnorm:=T -21.684384752011=T 0.000427733123=T energy:=T xtb:=T 830e466=T pbc="F F F"
C       1.49406080       2.04229976      -2.05190077 
C      -0.00971465       0.49890992      -1.37992854 
C       1.42632230      -0.06597529      -1.33930234 
O       0.13112906       1.74803982      -2.04314006 
O       1.87754924       2.70879490      -0.88823265 
O       2.16523666       0.84647705      -2.13593440 
H       1.35556759       3.51291383      -0.79562076 
H       1.71823169       2.64692144      -2.94392276 
H       1.52068334      -1.05150556      -1.79396934 
H       1.82063293      -0.08108499      -0.31835438 
H      -0.69354897      -0.11410642      -1.96979724 
H      -0.41713999       0.64840552      -0.37569676 
