12
 energy: -21.635974038554 gnorm: 0.000691478437 xtb: 6.2.3 (830e466)
C         1.85613531875414    2.24428029316408   -1.26561161273185
C         0.08150524271876    0.66981845678191   -1.34532518788766
C         0.87719833907362   -0.61474274469726   -1.41071639864398
O         0.73703627251836    1.68854398321075   -0.62458104384597
O         1.54290535982115    3.13883344972805   -2.27906903744440
O         0.73905876722370   -1.46267764041911   -2.24357291614949
H         1.11068329837149    2.68274945676124   -3.01141170563353
H         2.37380298283137    2.82539952273510   -0.49874855537031
H         2.51776292008566    1.44008625059643   -1.63953430798373
H         1.60260521232433   -0.71376824521180   -0.58052453158478
H        -0.21588543196534    0.98613301239815   -2.35508646887469
H        -0.83389828175697    0.45533420495264   -0.78150823384943
12
Properties=species:S:1:pos:R:3 6.2.3=T gnorm:=T pbc="F F F" energy:=T -21.636259719376=T 830e466=T xtb:=T 0.000474701723=T
C       1.73647469       1.79856229      -1.65838645 
C       0.58472992       0.77335172      -1.54436964 
C       1.14763223      -0.59809224      -1.25869568 
O      -0.30761019       1.14181978      -0.52797740 
O       1.22500691       3.09062753      -1.86039143 
O       1.86853488      -1.20215832      -2.00001258 
H       0.85525960       3.15559197      -2.74892099 
H       2.27612306       1.83869956      -0.70888540 
H       2.42507752       1.49293941      -2.45312239 
H       0.83134809      -0.99417570      -0.27840124 
H       0.06021053       0.73422184      -2.51710612 
H      -0.31387723       2.10860216      -0.47942067 
