12
 energy: -21.638943022755 gnorm: 0.000180273061 xtb: 6.2.3 (830e466)
C         1.75335893388217    2.13735789301482   -2.05917870683010
C         0.17486308179563    0.54580959861726   -1.31766232448549
C         1.00998618273578   -0.69302886110112   -1.09645789153240
O         0.62017168316368    1.37144794809101   -2.36911109900104
O         1.47745729066524    3.14128558537907   -1.13223755990953
O         2.01783094223911   -0.97896502403397   -1.67231417360004
H         0.81817666672254    3.74094691021094   -1.50291474524941
H         2.55014609416994    1.52887130816144   -1.61763898797104
H         2.08928490665299    2.54693339208178   -3.02075954453635
H         0.58338464164715   -1.34324340561802   -0.30454677129852
H        -0.84376437098727    0.23878360920798   -1.57425843350177
H         0.13810394731297    1.10380104598873   -0.36872976208424
12
Properties=species:S:1:pos:R:3 6.2.3=T gnorm:=T pbc="F F F" energy:=T 0.000519659406=T xtb:=T 830e466=T -21.668548822037=T
C       1.68976033       1.40142662      -1.94696548 
C      -0.50747856       2.18273086      -1.69988938 
C       2.18639712      -0.59104640      -0.77463404 
O       0.41650485       1.43059856      -2.46535023 
O       1.75320664       0.66303778      -0.71954583 
O       2.59974490      -1.16968976      -1.73038986 
H      -0.17866293       3.22403742      -1.61188013 
H       2.32745320       0.91357817      -2.69212783 
H       2.05986503       2.40826360      -1.69765642 
H       2.12456480      -1.01938364       0.24036051 
H      -1.45111592       2.13769395      -2.23792636 
H      -0.63123945       1.75875282      -0.69980496 
