12
 energy: -21.638945767440 gnorm: 0.000601863097 xtb: 6.2.3 (830e466)
C         1.67082019762614    2.07804899988700   -2.23860411222063
C         0.21252943875933    0.53855970115958   -1.19975497208370
C         1.12842219482625   -0.60832449970212   -0.84501283730133
O         0.56290563450534    1.22865955991677   -2.37708674128501
O         1.39583032804208    3.18180328105825   -1.43341763651585
O         2.12113311574195   -0.92917930780418   -1.42840899911859
H         0.68373167927860    3.69564806538666   -1.83404246738941
H         2.52107970765894    1.56847583131966   -1.77291945764463
H         1.93053151088572    2.37177312862485   -3.26400287979280
H         0.77924940983806   -1.15058372143106    0.05863604239872
H        -0.79426489862959    0.14085534951593   -1.36297549380822
H         0.17705168146720    1.22385361206871   -0.33821044523858
12
Properties=species:S:1:pos:R:3 6.2.3=T gnorm:=T pbc="F F F" -21.638364040624=T energy:=T xtb:=T 0.000645765684=T 830e466=T
C       1.23169391       2.14583736      -3.04685540 
C       0.17623121       0.48064764      -0.30844279 
C       1.40656209      -0.10599753      -0.90380790 
O       0.10843396       1.83883588      -3.29914365 
O       1.55213631       3.03238739      -2.11188721 
O       2.40232607       0.50531426      -1.19066062 
H       2.49660875       3.03752782      -1.90968750 
H       0.38039933       1.45021387       0.13863548 
H       2.10034471       1.71756259      -3.58496037 
H       1.33955172      -1.19130799      -1.10814296 
H      -0.53510352       0.62584041      -1.12440332 
H      -0.27016455      -0.19727170       0.41355624 
