12
 energy: -21.640697933280 gnorm: 0.000985705740 xtb: 6.2.3 (830e466)
C         1.02748145918133    2.54700040723889   -1.53272758211040
C         0.13166179481745    0.37109904847467   -1.50322375560600
C         1.38766294722412   -0.46207514127585   -1.37711108638366
O         0.32092441888439    1.56311623820514   -2.23433099799363
O         2.35253978563648    2.20914921818153   -1.28509170992867
O         1.61625964215521   -1.21832479757217   -0.47876320998399
H         2.82930247866490    2.12908010090889   -2.12050085076033
H         0.57953725188412    2.72234898788124   -0.54410672307146
H         0.93959281299388    3.45240795189372   -2.14857934150174
H         2.08186059110186   -0.33512106014967   -2.22958463018631
H        -0.28132440008690    0.57636012738122   -0.50652764850821
H        -0.59629878245686   -0.21505108116756   -2.07535246396571
12
Properties=species:S:1:pos:R:3 830e466=T 6.2.3=T gnorm:=T pbc="F F F" energy:=T xtb:=T 0.000836297967=T -21.636212236996=T
C       1.60843728       1.33765904      -2.14190788 
C      -0.43699617       1.20257108      -0.94481340 
C       2.12147022      -0.02278806      -1.67418570 
O       0.22287836       1.47878564      -2.17140944 
O       2.23746989       2.30753473      -1.35275553 
O       1.55207789      -1.06173510      -1.82089286 
H       1.91922571       3.17979381      -1.61613724 
H       0.04487950       1.72772040      -0.11500758 
H       1.91701874       1.43363817      -3.20192055 
H       3.11031464       0.06129071      -1.18806989 
H      -0.45306204       0.12990059      -0.73887083 
H      -1.45451404       1.56561900      -1.06992909 
