12
 energy: -21.640692906296 gnorm: 0.000663758700 xtb: 6.2.3 (830e466)
C         0.98393729739637    2.41364419177433   -2.11037341764812
C         0.51803557161693    0.12183311527892   -1.83762173536137
C         1.36528535777631   -0.21845473629005   -0.63175104914166
O         0.01967201059101    1.44184238077183   -1.82006916475507
O         1.96369819881689    2.53430744544462   -1.13218947372363
O         2.22591696932881   -1.04876287733872   -0.61664343756889
H         1.56197191550846    2.82784896243176   -0.30495190889245
H         1.52274761929949    2.16859812019442   -3.03659642631389
H         0.41667906034664    3.34513340222623   -2.24366831277674
H         1.09254810044562    0.36147432140946    0.27032327751538
H         1.08218779157201   -0.07875164690497   -2.75824636234091
H        -0.36358989269870   -0.52852267899776   -1.81394198899247
12
Properties=species:S:1:pos:R:3 6.2.3=T gnorm:=T pbc="F F F" -21.594538509544=T energy:=T 0.000501640676=T xtb:=T 830e466=T
C       1.90073608       2.37389048      -2.43947768 
C      -0.29357184      -0.08055381      -0.70157962 
C       1.19959715      -0.01429215      -0.93708999 
O      -1.08889642       0.80810376      -0.83317757 
O       1.23360454       2.14566991      -1.22027245 
O       1.73959328      -0.39398149      -1.94823900 
H       0.27123356       2.15700022      -1.35863751 
H       2.90553302       2.71435652      -2.19524749 
H       1.39481557       3.12728297      -3.04318351 
H       1.75172621       0.15486011       0.00784214 
H       1.97784825       1.43634420      -3.00695824 
H      -0.60312941      -1.08849073      -0.35970909 
