12
 energy: -21.638937915196 gnorm: 0.000554812522 xtb: 6.2.3 (830e466)
C         1.68840179032956    2.08255871113659   -2.21457400112539
C         0.21181336881420    0.53178458316574   -1.22128736371934
C         1.11762921664411   -0.61254497148180   -0.83211840958103
O         0.60134917697372    1.21394803650994   -2.39069455244197
O         1.35453266132314    3.20041663943521   -1.45166300823649
O         2.13696115630394   -0.92406030501575   -1.37358174455471
H         0.66337518238660    3.69820951288678   -1.90587598977978
H         2.51940393845370    1.59667716245382   -1.69176113663390
H         1.99974740833711    2.35663825979123   -3.23112016503887
H         0.73512976078250   -1.15991980863344    0.05430363749514
H        -0.79014866511251    0.13426018666477   -1.41213570378848
H         0.15098500476387    1.22213199308679   -0.36529156259504
12
Properties=species:S:1:pos:R:3 6.2.3=T gnorm:=T pbc="F F F" energy:=T 0.000536956916=T xtb:=T -21.636207155738=T 830e466=T
C       2.15033699       1.84725231      -2.33005850 
C       0.17526972       0.87676996      -1.43969111 
C       0.90949845      -0.25352558      -0.72217589 
O       0.82262101       1.39665370      -2.55813292 
O      -0.11599989       1.85176916      -0.47846974 
O       1.63088335      -1.04838810      -1.24539237 
H      -0.56555952       2.59028411      -0.90748464 
H       2.83786724       1.00507196      -2.22212550 
H       2.41940797       2.42815522      -3.20949569 
H       0.68124218      -0.26519693       0.35857072 
H      -0.75649530       0.43234883      -1.84259683 
H       2.20010778       2.47890536      -1.43874752 
