12
 energy: -21.638944766829 gnorm: 0.000243601960 xtb: 6.2.3 (830e466)
C         1.63981541016145    2.30590983704715   -1.79682935064130
C         0.36389152844961    0.48536402661447   -1.00144622110041
C         1.28667336858131   -0.69375907909756   -1.19928054690476
O         1.01705469986436    1.69627123238012   -0.69777220099412
O         0.72014505959746    2.80926076897021   -2.71530373639222
O         2.48179628889580   -0.66777297573281   -1.18560183319666
H         0.17625162407368    3.47906760990277   -2.28245484380220
H         2.26423695188144    3.09851917388912   -1.36389204140985
H         2.26863598502528    1.60200121166992   -2.35290411405353
H         0.72335296320727   -1.63388874473064   -1.37509660050549
H        -0.25343508138415    0.58823228288470   -1.90779906348253
H        -0.29940879835393    0.27084465620238   -0.15771944751672
12
Properties=species:S:1:pos:R:3 6.2.3=T gnorm:=T pbc="F F F" energy:=T 0.000958186732=T xtb:=T -21.645759802796=T 830e466=T
C       1.49781161       3.03263671      -2.03927509 
C       0.08220603      -0.34653853      -0.96609480 
C       1.48548630      -0.79585161      -1.19383675 
O       0.34444601       2.92204666      -1.73632805 
O       2.07873479       4.16464994      -2.39679267 
O       2.39539738      -0.10559831      -1.56125634 
H       1.44416974       4.90198120      -2.38169796 
H       2.22309709       2.20777897      -2.05770700 
H      -0.03103412       0.71561409      -1.16997192 
H       1.64681648      -1.87384690      -0.98887834 
H      -0.58201243      -0.92239164      -1.60857997 
H      -0.19610888      -0.56043059       0.06431888 
