12
 energy: -21.638942729766 gnorm: 0.000540237192 xtb: 6.2.3 (830e466)
C         1.67608678459984    2.08031587779280   -2.22944950316481
C         0.21179485367086    0.54292315480418   -1.19665485486385
C         1.11341718988530   -0.62148722955155   -0.86137548699632
O         0.56380109275579    1.23765849300914   -2.37051639502611
O         1.40372221804543    3.18814317198937   -1.42799835552120
O         2.10320471760261   -0.94249850824992   -1.44991680167768
H         0.70289866120488    3.70991563973912   -1.83748136316896
H         2.52123057116040    1.56663734042767   -1.75831904932122
H         1.94252634370716    2.37030135585580   -3.25406805461166
H         0.75694709173463   -1.17636035531174    0.03133110924419
H        -0.80299158759198    0.16396794006953   -1.35291701169274
H         0.19658206322515    1.22038311942556   -0.32833423319953
12
Properties=species:S:1:pos:R:3 -21.645597316046=T 6.2.3=T gnorm:=T pbc="F F F" energy:=T 0.000905806298=T xtb:=T 830e466=T
C       1.24230224       1.77026733      -1.74643395 
C       0.47294323       0.73477000      -0.92648185 
C       1.17152940      -0.58955634      -0.85982181 
O       0.94468093       1.55277254      -3.09497456 
O       0.83188639       3.04171751      -1.31757266 
O       2.28432513      -0.81898287      -1.23746464 
H       1.13394310       3.71289146      -1.93939304 
H       2.32656837       1.64796434      -1.56765095 
H       1.61093147       1.95144156      -3.66463664 
H       0.54864286      -1.38185028      -0.39920863 
H      -0.51540075       0.60374658      -1.37011793 
H       0.33686763       1.11471816       0.08805666 
