12
 energy: -21.540754998281 gnorm: 0.000584409028 xtb: 6.2.3 (830e466)
C         0.99730510720400    1.00707162474328   -3.20299708839377
C         0.92888161167665   -0.17983851366178   -2.63655863749481
C         0.40026196211405    1.63024626248039    0.09965437622803
O         1.00379974385649    2.65330145546092   -0.47273424945916
O         2.39255573202846    2.48729804638698   -0.58150297000796
O         0.94315815236632    0.64643573357560    0.50960845830447
H         2.54383248660591    1.58766936062069   -0.21020808936925
H         1.93761275550585    1.45700644491624   -3.47755444613535
H         0.11586447082338    1.58994547961103   -3.41787149092239
H        -0.67427343661483    1.85361746706010    0.13469377904402
H         1.81024039111192   -0.76255115291279   -2.42222034190875
H        -0.01012897667937   -0.63030220828011   -2.35810929988424
12
Properties=species:S:1:pos:R:3 6.2.3=T gnorm:=T pbc="F F F" -21.556758226095=T energy:=T xtb:=T 830e466=T 0.000685172783=T
C       0.60270354       1.23377110      -3.40004411 
C       0.28109685       0.65101516      -2.26217697 
C       0.80194532       1.06483654      -0.91121921 
O       1.84529457       1.98652677      -1.09976747 
O       2.12156804       2.67794203       0.09672164 
O       1.23857727      -0.03605000      -0.15644587 
H       2.54991260       2.02267797       0.67235937 
H       1.26894364       2.07809883      -3.42447761 
H       0.20493128       0.88967063      -4.33908790 
H      -0.00113169       1.52108965      -0.31169329 
H       1.86092547      -0.55095892      -0.68609044 
H      -0.38565689      -0.19871977      -2.21387813 
