12
 energy: -21.541552085562 gnorm: 0.000718307716 xtb: 6.2.3 (830e466)
C         1.10509393666093    1.37069073499641   -3.34188681702491
C        -0.14570787919610    1.23329062253295   -2.94501432127681
C         1.79889615508796    0.29722726350502    0.51112007221607
O         1.66865877353296    1.57980258820490    0.77936305349573
O         1.22422836616255    2.35859275935299   -0.30229029995034
O         1.57649441419107   -0.23291773911022   -0.53703866302284
H         1.09569490262797    1.72106793603840   -1.05106851376516
H         1.54273215174021    2.33935678320599   -3.52579864947683
H         1.74364918425162    0.51864275830188   -3.50730933072673
H         2.14943473105245   -0.19068712668617    1.43329293201923
H        -0.57976720564608    0.26270070838396   -2.76766979006194
H        -0.79038753046509    2.08222271127457   -2.78169967242507
12
Properties=species:S:1:pos:R:3 0.000898458528=T 6.2.3=T gnorm:=T pbc="F F F" energy:=T xtb:=T 830e466=T -21.559050492968=T
C       1.39829930       1.16980707      -3.67882552 
C       0.81911098       0.94598553      -2.51387476 
C       0.89290456       0.28455972      -0.26576719 
O       1.42418849       1.35953635       0.44346458 
O       0.79197283       2.57580823       0.04319840 
O       1.39525155       0.15553664      -1.55501995 
H       1.51877884       3.21339424       0.05354174 
H       0.91008470       1.76033720      -4.42968062 
H       2.36374799       0.75807374      -3.90909925 
H       1.23255304      -0.58841898       0.30005282 
H      -0.20823568       0.34630494      -0.26936136 
H      -0.14963660       1.35906533      -2.25462889 
