12
 energy: -21.541553578789 gnorm: 0.000668067249 xtb: 6.2.3 (830e466)
C         0.86782235625816    0.95578524000926   -3.34496080577206
C        -0.26881892402527    0.63238746866874   -2.75819649963953
C         2.15988093583696    0.97056447216003    0.50302291275459
O         1.74145296957075    2.21906563896828    0.52308644029534
O         1.02174384238078    2.61095767980186   -0.61793948341979
O         1.98103700353599    0.17865757427528   -0.37400421304846
H         0.98704930302380    1.80710080637892   -1.19778104730163
H         1.69933872117277    0.27120214476579   -3.38468693891289
H         1.01593142838912    1.91586562298789   -3.81313919995843
H         2.70262628173155    0.79711504477182    1.44418598709816
H        -1.10542531220632    1.31182078056905   -2.71910186870374
H        -0.41361860566853   -0.33052247335705   -2.29628528339224
12
Properties=species:S:1:pos:R:3 6.2.3=T gnorm:=T pbc="F F F" 0.000940186301=T energy:=T xtb:=T 830e466=T -21.559003001912=T
C       1.17278766       0.76686964      -3.65976724 
C       0.77145088       0.67605480      -2.40499625 
C       1.21165895       0.58015982      -0.10463713 
O       1.51657580       1.88187216       0.28759399 
O       0.58413177       2.80259347      -0.27472109 
O       1.61202477       0.27426067      -1.40039356 
H       1.14708910       3.51214744      -0.61507629 
H       2.18782994       0.55129901      -3.93848836 
H       0.48555257       1.04674672      -4.43454868 
H       1.81129643      -0.03692093       0.57108262 
H      -0.24661451       0.89788433      -2.09887343 
H       0.13523664       0.38703285       0.03702540 
