12
 energy: -21.533879602689 gnorm: 0.000736335731 xtb: 6.2.3 (830e466)
C         1.03632346438023    0.73641465870966   -3.11823680008704
C         0.09810137114182    0.04184094260341   -2.50890455271266
C         1.50883572657326    0.97064478191918    0.14959629504507
O         2.08229379876719    2.07304861923335   -0.34882642967903
O         1.14793694451164    3.10183755135358   -0.59465269156111
O         2.14733919242632    0.00633371267547    0.41762392707014
H         1.68060008919271    3.76891942748790   -1.05416214323302
H         2.06800698811997    0.42267583146384   -3.11650622840534
H         0.81703127647140    1.65021733065643   -3.64760853038992
H         0.41880639490536    1.08665794252476    0.27887964186731
H        -0.93425127069070    0.35361156920295   -2.51062664828935
H         0.31828602420322   -0.87230236782920   -1.98226583962607
12
Properties=species:S:1:pos:R:3 6.2.3=T gnorm:=T pbc="F F F" -21.624900548492=T 0.000764617689=T energy:=T xtb:=T 830e466=T
C       0.80463315       0.33932142      -2.65091892 
C      -0.39184056      -0.14962769      -2.38048588 
C       1.62732802       0.76574957      -0.48979528 
O       1.84688252       0.47073273      -1.77062408 
O       1.72672596       3.33303058      -1.07184081 
O       2.50353146       0.80550028       0.31991509 
H       1.78228249       3.62462407      -0.15828037 
H       2.62992789       3.23757857      -1.38323483 
H       1.10102741       0.65790065      -3.64044122 
H       0.56700087       0.97434585      -0.25338080 
H      -1.13364128      -0.21865252      -3.15340329 
H      -0.67454792      -0.50060351      -1.40319960 
