12
 energy: -21.536357440343 gnorm: 0.000396190774 xtb: 6.2.3 (830e466)
C         0.52950995661269    1.58063649538429   -3.39583309595256
C        -0.53511850957160    0.93765482581636   -2.95028398092490
C         2.78897492379894    0.66163918424944    0.67561919510342
O         2.07754213451044    0.78844300747126   -0.44821927955434
O         0.91692176516695    1.57080797804083   -0.26856830512744
O         3.79773561838518    0.03493763778419    0.70718653033696
H         0.50495409493988    1.54357123061170   -1.16176372972242
H         1.46755215461847    1.07860758902600   -3.57001908915068
H         0.50879318379191    2.63670551134596   -3.61378829996987
H         2.32902195405919    1.19344295022918    1.52772171274700
H        -0.51855562419726   -0.12190011293882   -2.74965223285372
H        -1.47823165211364    1.43545370297988   -2.78831942493164
12
Properties=species:S:1:pos:R:3 6.2.3=T gnorm:=T pbc="F F F" energy:=T -21.625508248223=T 0.000859492001=T 830e466=T xtb:=T
C       0.77272374       1.89467271      -3.32345002 
C       0.01252619       1.78055272      -2.25009590 
C       2.03883254       0.24879605      -0.02897501 
O       1.53804655      -0.73091805      -0.77777608 
O       0.34592692       2.18103356      -0.99638397 
O       2.97714770       0.90453882      -0.35407751 
H       1.22516686       2.58447233      -1.01826916 
H       1.75868402       2.32552855      -3.27224196 
H       0.43655863       1.54868353      -4.28143978 
H       1.51105681       0.39616748       0.93501781 
H       0.74940877      -1.13917814      -0.40059551 
H      -0.97697872       1.34565044      -2.26763292 
