12
 energy: -21.533217959836 gnorm: 0.000572662859 xtb: 6.2.3 (830e466)
C         0.85002708884656    0.52119725060210   -3.27448106109081
C        -0.34920783354437    0.68969658339147   -2.75745954974899
C         2.31529750208558    0.87604412963060    0.25396233269158
O         2.14270494148151    2.06725119869189   -0.33316828144752
O         0.86304581565229    2.61019204491760   -0.08994342583029
O         3.33527066370091    0.27802022235611    0.15139508340425
H         0.81235030038289    3.33706624962220   -0.72891809365414
H         1.75191848855940    0.64811354902621   -2.69789520511391
H         0.99003188948418    0.24292801273322   -4.30618790198022
H         1.42205132729670    0.54895770240059    0.81489846421208
H        -1.24481155580417    0.55571111155523   -3.34198255919105
H        -0.49966862814147    0.96472194507295   -1.72581980225262
12
Properties=species:S:1:pos:R:3 6.2.3=T gnorm:=T pbc="F F F" -21.629317240904=T energy:=T 0.000754301687=T xtb:=T 830e466=T
C      -0.04269388       1.24823370      -2.51427680 
C      -1.24884950       0.81581409      -2.83779530 
C       2.78646922       0.67639769       0.10899240 
O       2.98957639       1.59155289      -0.83639932 
O       0.16399892       2.16656368      -1.53030055 
O       3.64729026       0.08404940       0.67970081 
H       1.10790333       2.32648722      -1.41811694 
H       3.94155288       1.71417359      -0.99491789 
H       0.84389520       0.88807019      -3.02498637 
H       1.70722708       0.55488808       0.28074512 
H      -1.38497982       0.09522025      -3.62070861 
H      -2.12238008       1.17844920      -2.32753655 
