12
 energy: -21.536420006733 gnorm: 0.000418464325 xtb: 6.2.3 (830e466)
C         0.74875384956491    0.90604330082749   -3.42169326395408
C        -0.49988276129998    0.95703318186833   -2.99286336816502
C         2.64366364240005    1.07546950766967    0.77654645420407
O         1.94426856307869    0.98460790429772   -0.35802413188502
O         0.81614804077765    1.83203748393761   -0.36859248772593
O         3.62553582041411    0.43099025433737    0.95530902016664
H         0.42367183440376    1.64354113476786   -1.25132133125091
H         1.35373901818312    0.02061580685220   -3.31452551237855
H         1.22277026156391    1.74850343032017   -3.89923389890954
H         2.20302195544614    1.79729568530263    1.48768778493997
H        -1.11210564066774    1.83734770965294   -3.11428176401549
H        -0.98039458386481    0.10651460016606   -2.53458750102565
12
Properties=species:S:1:pos:R:3 6.2.3=T gnorm:=T -21.522706792026=T pbc="F F F" 0.000675574971=T energy:=T xtb:=T 830e466=T
C       1.13243300       0.76311112      -2.85869759 
C       0.47755586       0.92997096      -1.72808683 
C       2.85580139       0.84335987       0.83850827 
O       2.39846867       0.91267561      -0.41473175 
O       0.98060375       1.02109800      -0.46356682 
O       4.01674657       0.75680609       1.07249764 
H      -1.53819741       2.32664819      -3.69259001 
H       2.20360735       0.67834174      -2.88298156 
H       0.60401788       0.70150518      -3.79043503 
H       2.04660188       0.88111599       1.59143900 
H      -2.19209613       2.50658564      -4.07390891 
H      -0.59635280       1.01878161      -1.63302641 
