12
 energy: -21.533941451854 gnorm: 0.000378950810 xtb: 6.2.3 (830e466)
C         0.65976960707472    0.22765270008158   -2.90652316276105
C        -0.32434769823063    0.99107391440448   -2.47835620938059
C         2.35887561212918    0.81242997549753   -0.40019870515134
O         2.20201368747877    2.13201003246138   -0.56093202648742
O         1.00117888974548    2.60426265945627    0.01141903767756
O         3.31852602108589    0.24748887716777   -0.81153697354323
H         0.98002968036580    3.53141560419724   -0.26992232802532
H         1.35198478010287    0.55796688363978   -3.66343713694352
H         0.82327538298573   -0.76650517712883   -2.52397883241980
H         1.52105426202699    0.35445758477787    0.15435460403518
H        -0.48601984247911    1.98392317201832   -2.86625571301285
H        -1.01724038228570    0.66362377342653   -1.72033255398750
12
Properties=species:S:1:pos:R:3 -21.520413611534=T 6.2.3=T gnorm:=T pbc="F F F" 0.000715000635=T energy:=T xtb:=T 830e466=T
C       1.20492999       1.12864961      -2.13225195 
C      -0.11043341       1.27169649      -2.07481527 
C       2.12992326       1.34343879      -1.00179643 
O       1.95506564       2.39993288      -0.17018694 
O       0.92901479       3.32055424      -0.49132398 
O       3.06011059       0.62981561      -0.74581165 
H       1.20764711       4.10899008      -0.00202686 
H       1.69649139       0.73395121      -3.01091763 
H       0.75565714      -2.46597108      -2.31747492 
H       0.90783078      -1.78101850      -1.97957158 
H      -0.73259102       1.03137496      -2.92062121 
H      -0.61454625       1.61838571      -1.18890159 
