12
 energy: -21.536402849300 gnorm: 0.000725758046 xtb: 6.2.3 (830e466)
C         0.60361549297689    0.96246455384900   -3.38503659438844
C        -0.61779209117634    1.08276854830577   -2.89602089785597
C         2.77568126684527    0.90382294027569    0.67097506390098
O         2.04917113736882    0.94263191102340   -0.44943058395457
O         0.98474347331102    1.86573099645037   -0.37414559155412
O         3.71244093673627    0.18124656332064    0.78000681494267
H         0.52326765122897    1.72061678126237   -1.23082392454436
H         1.17885566041474    0.05878843758384   -3.26970534092463
H         1.08456130664842    1.76394222110169   -3.92176525717694
H         2.40171410888667    1.60233689009053    1.44142176357028
H        -1.20022501562944    1.98152997805774   -3.02480358960424
H        -1.10693392761093    0.27413017867848   -2.37658186240900
12
Properties=species:S:1:pos:R:3 0.000969951854=T 6.2.3=T gnorm:=T pbc="F F F" energy:=T xtb:=T 830e466=T -21.519679125318=T
C       0.52096392       0.92652395      -1.78947060 
C      -0.76004182       0.98761012      -2.09684486 
C       2.76358839       0.69402708       0.87416100 
O       2.33532615       0.82516456      -0.38602225 
O       0.92189557       0.89333481      -0.47869217 
O       3.92017551       0.62538921       1.13218375 
H       0.81434610       2.35781268      -4.63063289 
H       1.32804308       0.89676430      -2.50780780 
H       1.20244385       2.44810110      -5.29718680 
H       1.93368217       0.66064789       1.60339236 
H      -1.07257957       1.01068094      -3.12244492 
H      -1.51874335       1.01395337      -1.33654482 
