12
 energy: -21.527972368507 gnorm: 0.000642694518 xtb: 6.2.3 (830e466)
C         3.01621942059912    0.43246923867651   -2.26809309305393
C         1.81517779729274    0.73971873980324   -1.78815944287270
C         0.93508425806995   -0.27636727609444   -1.22207035398808
O        -1.34363048697429    2.49183872232912   -0.84611135109941
O        -0.19621109255627    3.24452145423030   -1.22295958861854
O        -0.17244377437895   -0.06847909832249   -0.78470408284949
H        -0.52306678918079    4.14927277870022   -1.15397100670124
H         3.67024727215275    1.17699841903091   -2.68899541433226
H         3.38540887585132   -0.58159960495657   -2.25681530112471
H         1.35744961187056   -1.29819837023454   -1.21540945250551
H        -0.99121909701315    1.57647153003211   -0.79354038551674
H         1.43599400426541    1.75296346680581   -1.79496052733295
12
Properties=species:S:1:pos:R:3 6.2.3=T gnorm:=T 0.000201473530=T pbc="F F F" -21.502299688563=T energy:=T xtb:=T 830e466=T
C       2.04928597       0.81464552      -2.45151656 
C       0.98819289       0.50694429      -1.70309843 
C       0.99742483      -0.63491362      -0.76118575 
O      -0.22772168       2.27129766      -2.57897765 
O      -0.19652727       1.16080900      -1.69239061 
O       0.09346319      -0.97475380      -0.05055733 
H       1.56794752       3.51766197      -0.39638546 
H       2.02955618       1.64636265      -3.13192166 
H       2.94910791       0.23380274      -2.38846090 
H       1.96629936      -1.16862900      -0.77738403 
H      -1.10729468       2.63423171      -2.40497881 
H       1.27927579       3.33215087       0.30106718 
