12
 energy: -21.525527210833 gnorm: 0.000608782438 xtb: 6.2.3 (830e466)
C         2.49186111222546    1.25775234746035   -1.78644904512668
C         2.16852217110259    0.52921399689493   -0.72057941177871
C         0.97345674199515   -0.31277047483850   -0.67852919875471
O        -0.59740292056365    1.96906581122050   -2.89463542600297
O        -0.38008280747370    2.83802694403276   -1.78967322981565
O         0.09760949914185   -0.33976528778575   -1.51189209900017
H        -0.86759085517186    3.62783988238146   -2.05555900042067
H         3.37333668621523    1.87565359121378   -1.80892799375509
H         1.87547331812245    1.25568407640965   -2.67035475659117
H         0.91012927367287   -0.96403273432550    0.21244653340213
H        -0.44308382757071    1.08452195695010   -2.49715950134538
H         2.78706160830470    0.51880989038714    0.16561312918795
12
Properties=species:S:1:pos:R:3 0.000674555689=T 6.2.3=T gnorm:=T pbc="F F F" energy:=T xtb:=T 830e466=T -21.557333589236=T
C       2.73998678       0.87655156      -1.87736916 
C       1.89998753       1.28455972      -0.94725866 
C       0.48281521       0.77234159      -0.80592623 
O      -0.15982918       1.52342709      -2.89731783 
O      -0.32928478       1.66299878      -0.11305842 
O      -0.08298582       0.38123492      -2.02997208 
H      -0.45243509       2.44383404      -0.66976104 
H       3.74007693       1.26696801      -1.94876176 
H       2.45432350       0.13693543      -2.60679239 
H       0.47016398      -0.16884188      -0.23681838 
H      -0.54383206       1.13383024      -3.69306976 
H       2.17030300       2.02616048      -0.20959429 
