12
 energy: -21.525526180440 gnorm: 0.000795415340 xtb: 6.2.3 (830e466)
C         2.53404757418003    1.13925664478120   -1.51908477672360
C         1.95966970850713    0.40338953388003   -0.57037348843537
C         0.72294926082777   -0.34340816602970   -0.79809733068072
O        -0.22528976168917    2.17927291075627   -3.09263280737875
O        -0.22748209176993    2.96503013416466   -1.90728148753658
O         0.01473437131824   -0.25682068859712   -1.77432873230401
H        -0.56414129041562    3.81057973990480   -2.22729081030555
H         3.44575177258939    1.68465617861418   -1.34397082254571
H         2.10177156619578    1.21532249738314   -2.50368359778825
H         0.45466626638574   -1.03501922993200    0.02125125144015
H        -0.22078627000841    1.26468210229000   -2.73576107234364
H         2.39338889387635    0.31305834279219    0.41535367460142
12
Properties=species:S:1:pos:R:3 6.2.3=T gnorm:=T pbc="F F F" 0.000912164768=T energy:=T -21.625741280812=T xtb:=T 830e466=T
C       1.01399874       0.44377782      -2.46612077 
C       1.01278565       0.23955943      -1.13716749 
C       1.08654699      -1.09608415      -0.58926787 
O       0.95455755       1.61139964      -3.08477417 
O       0.95413834       3.75737099      -1.32571516 
O       1.16477227      -2.12299870      -1.22578347 
H       0.37543587       4.48556006      -1.56490123 
H       1.81948934       4.12600549      -1.13207039 
H       1.07011788      -0.39893708      -3.14481410 
H       1.07256543      -1.12411140       0.51925116 
H       0.91190035       2.34596014      -2.43288845 
H       0.95297160       1.07249775      -0.45164805 
