12
 energy: -21.526348386076 gnorm: 0.000569514992 xtb: 6.2.3 (830e466)
C         1.91566642730375    1.57726390767115   -0.43040857407517
C         1.73873763318190    0.28210861624431   -0.17825214886539
C         0.81242322500446   -0.54808908002191   -0.94835271290024
O         0.18869908534374    1.88618110188610   -3.82870076985870
O         0.31959744856317    3.00443423285965   -2.95845608971949
O         0.20272751842982   -0.20480250307668   -1.93324592434586
H         0.14066010280905    3.74284419819141   -3.55329744781764
H         2.59422059335439    2.18130618378018    0.14820062512094
H         1.37573877884358    2.07400184962669   -1.22089004543722
H         0.69258691120701   -1.57389033987842   -0.55389125383378
H         0.14149797684479    1.13583390856750   -3.20035620293623
H         2.26684429911307   -0.21709207587462    0.62205054466508
12
Properties=species:S:1:pos:R:3 6.2.3=T gnorm:=T pbc="F F F" 0.000654985081=T energy:=T xtb:=T 830e466=T -21.614787972631=T
C       1.40361980       1.10724932      -0.91841264 
C       1.45670929      -0.06409857      -0.25251519 
C       0.82449977      -1.29114817      -0.69632572 
O       0.76423936       1.27929824      -2.06431874 
O       0.85763108       3.82144768      -3.08868169 
O       0.17597735      -1.45605460      -1.70171728 
H      -0.01861239       4.21477049      -3.11315472 
H       1.91241328       1.97459568      -0.50093365 
H       1.18222699       3.78809107      -3.99186133 
H       0.99118919      -2.13529921       0.00736394 
H       0.83510441       2.20062756      -2.39009469 
H       2.00440187      -0.09937948       0.67505171 
