12
 energy: -21.566431425434 gnorm: 0.000393305240 xtb: 6.2.3 (830e466)
C         1.62677657529702    0.84038400102459   -2.62982677399973
C         1.19849176509381    1.12012747036195   -1.18697602443823
C         0.91131974002990   -0.16377228232835   -0.43890561293867
O         0.02965762007533    1.90333886303860   -1.09635472322424
O         0.34735837170337    3.25378346477561   -1.43697291277755
O         1.63667684507322   -1.11436864415959   -0.42326776530312
H        -0.51036628711080    3.68961087485753   -1.34875488747488
H         2.47983754415334    0.16876647757895   -2.62333458758871
H         1.89704190349383    1.77150541569384   -3.12034493200571
H        -0.05146240074115   -0.14297855499724    0.10260462905328
H         0.80743212369261    0.37619363087668   -3.17380625812434
H         2.01642619923948    1.63748928327739   -0.65975015117806
12
Properties=species:S:1:pos:R:3 6.2.3=T gnorm:=T 0.000842805581=T pbc="F F F" -21.534386014306=T energy:=T xtb:=T 830e466=T
C       0.99085073       0.32129487      -3.26677205 
C       1.10951665       1.49226297       0.40742461 
C       1.82095443       0.44273187       0.07394761 
O       0.11749702       2.02304922      -0.34453373 
O       0.62346672       3.10138234      -1.19718147 
O       2.43247270      -0.52245734      -0.10038649 
H      -0.08161718       3.18145032      -1.85177144 
H       1.60154702      -0.57084878      -3.21894847 
H       1.58547403       1.17939557      -2.98135725 
H       0.15155174       0.21866130      -2.59027374 
H       0.62636830       0.45426678      -4.27712541 
H       1.41110783       2.01889088       1.31128783 
