12
 energy: -21.567413594585 gnorm: 0.000434680363 xtb: 6.2.3 (830e466)
C         1.86743446249277    0.79908483282142   -2.71402320988284
C         1.25712603125852    1.28417795612783   -1.39969910942768
C         0.99890774033863    0.11405871382986   -0.46752530572610
O         0.07146636395415    1.96572492832071   -1.73414776033963
O        -0.46129957339016    2.58858433467924   -0.56366561240923
O         1.84611259593135   -0.63319664883358   -0.07277133041306
H        -1.11172215293389    3.19775863514385   -0.93710460460556
H         2.75659923028009    0.21583114310119   -2.49537234866038
H         2.12780047689364    1.64695364370436   -3.34064988439955
H        -0.06188999546382    0.00907084714222   -0.17785478258423
H         1.14784027264954    0.17884459432529   -3.24177350448745
H         1.95061454798919    1.97331701963760   -0.89121254706429
12
Properties=species:S:1:pos:R:3 6.2.3=T gnorm:=T pbc="F F F" -21.502026184888=T energy:=T xtb:=T 0.000619528585=T 830e466=T
C       1.18676163      -0.01337345      -2.92267194 
C       0.73193203       0.65232563      -1.85723226 
C       1.21800178       0.34095728      -0.49709449 
O      -0.18778292       1.63949819      -2.05916963 
O      -0.64958191       2.26480935      -0.86558322 
O       2.01268388      -0.52985630      -0.25512731 
H      -1.27580690       2.91081130      -1.21981914 
H       1.91649344      -0.78685465      -2.77167717 
H       3.01894677       3.21410903      -0.99064324 
H       0.78599527       0.97346961       0.29430032 
H       0.84886859       0.20226677      -3.91909541 
H       2.78247835       2.47204725      -0.97198650 
