12
 energy: -21.568025180977 gnorm: 0.000545129294 xtb: 6.2.3 (830e466)
C         1.81850142779894    0.94104006969963   -2.56404257102431
C         1.43794702643335    1.02714763043820   -1.08322634347759
C         0.40907154160376   -0.03452404846928   -0.73340223313328
O         1.02827103494066    2.31057872862446   -0.67905538808010
O        -0.18072672312206    2.67659943618722   -1.35362249445544
O         0.52198309524837   -1.19640493755019   -0.99484379506273
H        -0.20668755296532    3.63159179366617   -1.20984909016420
H         2.63587013495229    1.62264349810745   -2.78313798756089
H         0.95849433370797    1.20695380020564   -3.17400158669258
H        -0.47563490765766    0.36968751445036   -0.21028920079845
H         2.11751750184863   -0.07697147842154   -2.79367709106935
H         2.32439308721108    0.86175799306184   -0.45655221848107
12
Properties=species:S:1:pos:R:3 6.2.3=T gnorm:=T 0.000545841954=T pbc="F F F" energy:=T xtb:=T 830e466=T -21.504889516062=T
C       1.51158263       1.68927215      -2.22749531 
C       0.56242821       1.48419490      -1.31441650 
C       0.42361318       0.21692308      -0.56934452 
O      -0.39818470       2.37076857      -0.92952104 
O      -0.30693211       3.61041164      -1.61897649 
O       1.13658694      -0.73880292      -0.71245742 
H      -1.02231170       4.11802985      -1.21121737 
H       2.21244867       0.90224782      -2.43488937 
H       1.59766564       2.61963220      -2.75801611 
H      -0.41622325       0.22335453       0.14790351 
H       3.22823713      -1.56289612      -1.97649633 
H       3.86008937      -1.59303571      -2.43077304 
