12
 energy: -21.567411716736 gnorm: 0.000820365317 xtb: 6.2.3 (830e466)
C         1.77100130741293    0.77608573397079   -2.76195691017636
C         1.27328270927805    1.24309230948630   -1.39421017486376
C         0.89234383761688    0.04776935844336   -0.53926989257619
O         0.17287822650881    2.08820286195376   -1.63765290837744
O        -0.25772483599080    2.67373653517979   -0.40992904410015
O         1.66648618696548   -0.78103795061696   -0.15790171272580
H        -0.67351854321503    3.49480884187092   -0.70604715943760
H         2.58651949624212    0.07331488968188   -2.62098094578916
H         2.11515561035179    1.62619890020350   -3.34377126896841
H        -0.18440890098794    0.00867337776109   -0.29533594131279
H         0.96039788661780    0.28882094648725   -3.29738833552325
H         2.06659701919999    1.80063419557828   -0.87145570614912
12
Properties=species:S:1:pos:R:3 6.2.3=T gnorm:=T pbc="F F F" 0.000341860156=T energy:=T xtb:=T 830e466=T -21.592744984681=T
C       1.62742333       1.40609701      -2.99132707 
C       1.06228572       2.26745997      -1.86999109 
C       0.44544337      -0.36879158       0.31659948 
O       0.27641178       1.53908752      -0.94910837 
O       1.10930042       0.67223557      -0.18370473 
O       0.97891319      -1.18409663       0.99796112 
H       0.34398552       2.99776763      -2.25116251 
H       2.31404552       0.66700455      -2.58524106 
H       2.16463998       2.03250897      -3.69692996 
H      -0.62277619      -0.37112088       0.02837608 
H       0.82478471       0.89079023      -3.51323021 
H       1.86455264       2.79135765      -1.33814168 
