12
 energy: -21.567420783038 gnorm: 0.000565148425 xtb: 6.2.3 (830e466)
C         1.74363071624689    0.62305483580893   -2.73128175270526
C         1.27763698638979    1.28091026029907   -1.43248777596691
C         1.02096125858244    0.22459229653504   -0.37269516656106
O         0.11293016526994    2.00701627896715   -1.74648531503602
O        -0.27698224828490    2.78345183329201   -0.61219179134647
O         1.86504159296023   -0.48884695892874    0.08584939259773
H        -0.92833469346899    3.38572583186491   -0.99414354822294
H         2.61897449768055    0.01476477191134   -2.52570405791723
H         1.98887636045829    1.38405846947494   -3.46631257825645
H        -0.03698863605511    0.16528167173455   -0.05880749644293
H         0.94999636157668   -0.00517540133716   -3.12698559877247
H         2.05336763864417    1.96525611037796   -1.05466431136997
12
Properties=species:S:1:pos:R:3 6.2.3=T gnorm:=T -21.491594144635=T pbc="F F F" energy:=T 0.000833281223=T 830e466=T xtb:=T
C       2.13771658       0.20135671      -3.03220234 
C       1.97199359       0.91403143      -1.73420437 
C       0.85168335       0.90631924      -1.03196665 
O      -0.52153554       1.77493280       0.61167035 
O      -0.88745477       3.08106821       0.30046305 
O       0.79072338       1.51574878       0.20379447 
H      -1.30747641       3.04911677      -0.57576129 
H       2.89314760      -0.57770707      -2.93822931 
H       2.47568291       0.89609713      -3.79989831 
H      -0.05330073       0.40027360      -1.34591817 
H       1.20398852      -0.25366751      -3.35167918 
H       2.83394152       1.43251990      -1.34197826 
