12
 energy: -21.567409028157 gnorm: 0.000975644967 xtb: 6.2.3 (830e466)
C         1.64531240277827    0.73346361888603   -2.82378137569270
C         1.28879657380692    1.25485784519075   -1.43248324562432
C         1.03212413988655    0.10255839899818   -0.47794512438769
O         0.15423395499135    2.07445556599928   -1.58755395683260
O        -0.11934379278033    2.73892966832231   -0.35253805547437
O         1.83189735421802   -0.74923626420048   -0.21854465631683
H        -0.76987570445915    3.40190878601418   -0.62087308731076
H         2.46903613911615    0.03143352219450   -2.73661394021265
H         1.93077862847226    1.55732333449736   -3.47123860859586
H         0.01986036201943    0.11589244307264   -0.03504941995440
H         0.78386632072092    0.22956704718929   -3.25428979827540
H         2.12251362122959    1.84915603383603   -1.02498873132236
12
Properties=species:S:1:pos:R:3 6.2.3=T gnorm:=T pbc="F F F" -21.562858212316=T 0.000516261429=T energy:=T xtb:=T 830e466=T
C       1.42512272       0.97800283      -3.25203215 
C       0.69894592       1.77987987      -0.33769017 
C       0.90623164       0.29986361      -0.10233769 
O       0.17083160       2.07506602      -1.60988653 
O       1.20115253       2.18954265      -2.57606771 
O       1.70086493      -0.16800975       0.66034645 
H      -0.06846037       2.12355736       0.36615197 
H       1.85933389       0.21698074      -2.59263939 
H       2.14136592       1.23907775      -4.02911074 
H       0.22513137      -0.33219334      -0.70547578 
H       0.50682644       0.59774616      -3.70708208 
H       1.62185340       2.34079611      -0.15007616 
