12
 energy: -20.813935647962 gnorm: 0.000739328707 xtb: 6.2.3 (830e466)
C         0.43586425712754   -0.29673559185626    0.31955396838207
N         1.62361823469202   -0.53766182080808    1.08356043767288
O        -0.40046001090421   -1.42967550990923    0.41067478168082
O         0.73488400612642   -0.04848438031346   -1.01030972355470
H        -0.09781317649392   -1.95423263788412    1.15978433038706
H        -0.09032453913630   -0.09049088046888   -1.53241793016975
H        -0.09892480649104    0.56406895991915    0.76885658830147
H         2.21013612271949   -1.19210282670844    0.57266214462671
H         2.15205617867197    0.31798371437429    1.19706120419262
O        -1.75629499985570   -0.79810247710379   -1.99339989571405
H        -1.70620286925344   -1.18968141956794   -1.11111360178710
H        -1.67563839720190   -1.52019512967214   -2.62050230401806
12
Properties=species:S:1:pos:R:3 energy:=T -20.802396720678=T gnorm:=T 0.000765720177=T xtb:=T 6.2.3=T (830e466)=T pbc="F F F"
C        0.65517163      -0.91639786      -0.27982172
N        1.92188584      -1.03306127       0.36779839
O       -0.28700910      -1.71749307       0.36422651
O        0.30007373       0.42095515      -0.20962114
H       -0.15499208      -1.64626044       1.31604450
H       -0.54651500       0.55136568      -0.65447259
H       -2.84412111       1.01609514      -0.05547318
H        2.41607518      -1.84297411       0.01529992
H        2.47262947      -0.20280303       0.19483623
O        0.68922686      -1.35176011      -1.60247067
H       -3.20526818       0.44999481      -0.44989224
H       -0.08625724      -1.90297088      -1.76204402
