12
 energy: -20.809677538546 gnorm: 0.000634284351 xtb: 6.2.3 (830e466)
C        -0.01739378882413   -0.02958889743737    0.28910347936669
N         1.05153829445484    0.08145642295887   -0.65714877403678
O        -1.09343979940150   -0.69240612263885   -0.31416412438527
O        -0.36007042774359    1.26433860965054    0.67061952694466
H        -1.23853973719808   -0.26830362195934   -1.17188477309938
H        -1.18167530429808    1.23791596534996    1.17340151160635
H         0.21398849814510   -0.64476897157160    1.18559559597849
H         1.49391654722469   -0.81986737965702   -0.79731400686499
H         1.73358473729523    0.75799782780180   -0.34327227006472
O         0.59999684465245   -2.99116391719116   -0.79521889053688
H         0.27602109208152   -3.65811718789995   -1.40305453933854
H        -0.14703695638797   -2.41278272740669   -0.59227273557126
12
Properties=species:S:1:pos:R:3 energy:=T -20.698983105513=T gnorm:=T 0.000295289519=T xtb:=T 6.2.3=T (830e466)=T pbc="F F F"
C        0.46105683      -0.05970916       0.30411266
N        1.78265250       0.43672280       0.23889715
O        0.04074975      -0.81354741      -0.85481054
O       -0.41230210       0.99903662       0.36621830
H       -2.49830093      -2.75501995      -0.72780549
H       -1.31558660       0.67501097       0.27444588
H        0.38385240      -0.73908527       1.17658272
H        2.43476178      -0.31505595       0.05379594
H        1.85657474       1.14244714      -0.48475887
O        0.77848757      -2.02036844      -0.92358315
H       -2.28651403      -2.05723553      -1.00269847
H        0.10545810      -2.66848583      -1.17600613
