9
 energy: -15.731966001322 gnorm: 0.000834351309 xtb: 6.2.3 (830e466)
C        -0.08197077239034   -0.12843288310036    0.43622796922915
N         1.07044686542968   -0.82810687984185   -0.04872528009447
O        -1.23849275550661   -0.69090874939193   -0.10386483010245
O        -0.06093781044990    1.22641765276771    0.09181129343255
H        -1.06609944864849   -1.61956674429455   -0.29303631043685
H        -0.96027178021889    1.48446750381247   -0.14069072226879
H        -0.09598562087134   -0.22657400934636    1.54122026082784
H         1.90419129551391   -0.52526299787027    0.43741539764181
H         1.19541002714200   -0.62443289273485   -1.03635777822879
9
Properties=species:S:1:pos:R:3 energy:=T -15.678674668109=T gnorm:=T 0.000629373035=T xtb:=T 6.2.3=T (830e466)=T pbc="F F F"
C        0.58224891       0.08598827       0.65807826
N        0.36650073      -0.95295505      -0.31976873
O       -1.03721395      -1.08049030      -0.58554262
O        0.25789344       1.37810680       0.22608865
H       -1.27782837      -1.96271291      -0.27387551
H       -0.66571283       1.37538932      -0.05706235
H        0.00923646      -0.18850944       1.55567656
H        1.64967533       0.09090964       0.89025847
H        0.78149028      -0.67812632      -1.20985273
