9
 energy: -15.730864379357 gnorm: 0.000422030721 xtb: 6.2.3 (830e466)
C         0.06838932018813    0.02825890558047    0.40446985070723
N         1.21088810041841   -0.74011012168010    0.02986231356849
O        -1.12308582203853   -0.71313491195960    0.53023375241657
O        -0.07550290000175    1.02492923089529   -0.55437860652313
H        -1.36725611212108   -1.06384039361058   -0.33681233228140
H        -0.73529301678961    1.66111313805038   -0.25876024075671
H         0.23686401874810    0.43926221125352    1.41186842035577
H         1.29224933460702   -1.56743338472834    0.60564233298277
H         1.15913707698929   -1.00134467380104   -0.94812549046958
9
Properties=species:S:1:pos:R:3 energy:=T -15.697795117515=T gnorm:=T 0.000286398205=T xtb:=T 6.2.3=T (830e466)=T pbc="F F F"
C       -0.07846880       0.39928197      -0.57965778
N        1.03868302      -0.05495223      -0.90596774
O       -1.11926827      -0.26621100       0.01008311
O       -0.38713155       1.67101015      -0.78971199
H       -0.90617099      -1.18943426       0.18856696
H       -1.28681227       1.83279391      -0.47188806
H        1.27901878      -1.32718166       1.92971143
H        0.93128904      -1.96102317       2.21842725
H        1.19525104      -1.03658372      -0.71556319
