13
 energy: -23.857990985037 gnorm: 0.000705106459 xtb: 6.2.3 (830e466)
C         9.29968495731481    1.15119463744349    2.25343125751547
C        10.67463269293597    1.65925567875139    1.76565720385273
C         8.21015157722256    1.24652348778665    1.19416152647662
C         9.92175992633420    2.99723818694074    3.43262842305564
O         9.00803428436895    2.01952713817444    3.34131648535911
O        10.90022194497108    2.83033919835416    2.52404398149757
O         9.87842284872636    3.88761779024023    4.21326729099701
H         9.35589434444530    0.13187478284381    2.65069570504340
H        11.48372384020512    0.94953415505938    1.96187169344797
H        10.66860267084774    1.92157949715780    0.70460316607889
H         8.14117439792216    2.26380725096556    0.81525488357144
H         8.43446882153888    0.57049126217617    0.37360894705289
H         7.25283769316688    0.97361693410619    1.62935943605127
13
Properties=species:S:1:pos:R:3 energy:=T -23.809238677100=T gnorm:=T 0.000831363377=T xtb:=T 6.2.3=T (830e466)=T pbc="F F F"
C       10.66532910       0.60724295       2.20738781
C       11.86004407       1.01830910       2.58470935
C        7.23103177       2.29500798       1.44683780
C        9.40851457       2.64976265       2.35018871
O        9.51298681       1.34606359       2.02616228
O        8.20640222       3.13406783       2.04865979
O       10.24963185       3.33103715       2.85196826
H       10.43971850      -0.42376809       1.96827952
H       12.07634725       2.04363588       2.82207281
H       12.65843585       0.30382905       2.66816086
H        6.35362399       2.92395962       1.31459918
H        7.57668818       1.92591696       0.47895810
H        6.99085584       1.44753534       2.09191554
