13
 energy: -23.857992706984 gnorm: 0.000380949289 xtb: 6.2.3 (830e466)
C         9.38157988661135    1.10865105039441    2.08202583719864
C        10.65765070501007    1.91341957283956    1.74509904367258
C         8.24350041649109    1.33802648153059    1.09668945052400
C         9.82684370640315    2.61036054776504    3.73576199316506
O         9.02779925054850    1.59778122523892    3.36904866645067
O        10.78225047740518    2.82946064603428    2.81378079026820
O         9.71203802781775    3.22893554730510    4.73981482255239
H         9.58731277498561    0.03710149428662    2.18126025542546
H        10.56035753815453    2.47218207162518    0.81046928881433
H        11.55577877758185    1.29046476416745    1.70596203443179
H         8.03773811592353    2.40142358265553    0.99865426431683
H         8.51114212332783    0.93123348253345    0.12571177099849
H         7.34561819973955    0.84327953362388    1.45571178218156
13
Properties=species:S:1:pos:R:3 energy:=T -23.804881264025=T gnorm:=T 0.000368617608=T xtb:=T 6.2.3=T (830e466)=T pbc="F F F"
C        9.06882297       2.00182419       2.36176930
C       10.40468966       2.03887048       2.42017061
C        8.10952057       1.52244661       1.34325738
C        9.65174832       2.90130085       4.28739654
O        8.58676240       2.54193160       3.53190469
O       10.78367177       2.59681386       3.61448657
O        9.59578071       3.40073010       5.36301666
H       11.01992315      -0.37351509      -0.22888090
H       11.24333913       0.02473526      -0.85811400
H       11.17433238       1.73205054       1.74542012
H        7.46746782       2.34131458       1.02338328
H        8.64961302       1.12691665       0.48905159
H        7.47393810       0.74690038       1.76712815
