13
 energy: -23.857992796940 gnorm: 0.000846079369 xtb: 6.2.3 (830e466)
C         9.58845050449368    1.11469020129289    1.99144625962466
C        10.41933004231070    2.33448782797999    1.53450615482799
C         8.21913181490908    1.03315915322989    1.33131016342468
C         9.96446824156542    2.51571559196800    3.74750079427173
O         9.45071085048724    1.32925008775420    3.39056713514228
O        10.52998118172163    3.13400130603966    2.69460003857889
O         9.93123410621733    2.95995754655432    4.84549362166192
H        10.13270259631829    0.17374865909130    1.85423987327000
H         9.91462861801329    2.91162669541247    0.75518529155636
H        11.42309422561572    2.06283273666901    1.19532791107751
H         7.67021696293969    1.95919715809637    1.48727201021897
H         8.33480865872771    0.85768708961346    0.26519389437756
H         7.65085219668022    0.21624594629845    1.76745685196746
13
Properties=species:S:1:pos:R:3 energy:=T -23.759468606358=T gnorm:=T 0.000567843388=T xtb:=T 6.2.3=T (830e466)=T pbc="F F F"
C        9.63658892       0.99037569       1.90480029
C       10.38822101       2.31382875       1.78514415
C        8.21057120       1.07817399       1.36846304
C       10.14071779       2.91629949       3.16199604
O        9.64987858       0.71691810       3.30698334
O        9.68374862       1.95597948       3.98272064
O       10.29053967       4.04278297       3.52046244
H       10.16711685       0.14557637       1.45696645
H       10.01072510       2.96556861       1.00108351
H       11.46369923       2.18450752       1.65360662
H        7.68043778       1.90408419       1.83850603
H        8.22860256       1.23253204       0.29327072
H        7.67876268       0.15597280       1.58609673
