13
 energy: -23.857994079751 gnorm: 0.000443556545 xtb: 6.2.3 (830e466)
C         9.40777178023706    1.10956338778578    1.98252421721433
C        10.63627226149349    2.01460208077789    1.73742819573366
C         8.22150742327707    1.44466950815628    1.08858770189014
C         9.85985704855504    2.34638488183830    3.84091722516437
O         9.08975036078135    1.36700858260727    3.34417847537802
O        10.76578325628137    2.75554426181937    2.93394919933968
O         9.76064134219340    2.79099638284353    4.93474374209515
H         9.65844290322520    0.04632168498917    1.89761772434151
H        10.48062906717743    2.70902968938294    0.90729638488886
H        11.55648618769164    1.44702607763287    1.57096263042704
H         7.96633873270968    2.49808610616110    1.17936309205774
H         8.46633428756553    1.22047471555346    0.05407622614102
H         7.36089534881173    0.85308264045205    1.38766518532849
13
Properties=species:S:1:pos:R:3 energy:=T -23.835398769492=T gnorm:=T 0.000804111099=T xtb:=T 6.2.3=T (830e466)=T pbc="F F F"
C        9.25545131       0.87145130       1.93997202
C       10.87364496       2.43809365       2.25051022
C        8.09043673       1.36217043       1.08478565
C       10.00109045       2.32332263       3.49950247
O        9.11725574       1.34462939       3.26832482
O       10.50217244       1.32690924       1.47137012
O       10.06259026       2.96017161       4.50391205
H        9.27978456      -0.22668719       1.96533010
H       10.67241085       3.38975395       1.74001318
H       11.93583702       2.37714492       2.49520211
H        8.05579090       2.44922014       1.09006258
H        8.22569862       1.01241548       0.06564298
H        7.15854617       0.97419446       1.48468172
