13
 energy: -23.857991397704 gnorm: 0.000755506816 xtb: 6.2.3 (830e466)
C         9.39653676498824    1.86646151488570    1.44274221910093
C        10.68966556825495    1.55514797544520    2.22853657721495
C         8.40435870148130    0.71166388734031    1.43026251704191
C         9.56002944563278    3.22576732955360    3.26240437820310
O         8.85472963886725    2.97542234592130    2.14929664915222
O        10.62801454263188    2.41192752231091    3.35085108042921
O         9.28477452943836    4.05745927268213    4.06026025634613
H         9.60733556094348    2.19784658792445    0.42010741665034
H        11.59682190506966    1.78125581605459    1.66044829751625
H        10.72564627824842    0.51962779849739    2.57657716413204
H         8.17972362524667    0.39710532145940    2.44701316545231
H         7.48078202323422    1.02875783142770    0.95402174432568
H         8.82129141596278   -0.12575320350270    0.87748853443492
13
Properties=species:S:1:pos:R:3 energy:=T -23.810308945486=T gnorm:=T 0.000883420020=T xtb:=T 6.2.3=T (830e466)=T pbc="F F F"
C        9.87063844       0.82218599       1.33496316
C       10.70826183       1.33463204       2.22915408
C        8.38054718       0.85650001       1.40634505
C        9.57051067       3.08512611       3.41890059
O        9.36049087       3.68702477       2.24710461
O       10.33785296       1.97392582       3.40003497
O        9.14305364       3.50375349       4.44464348
H       10.29850523       0.31377527       0.48348314
H        9.78704325       3.22878507       1.50512057
H       11.78241294       1.23401483       2.14792128
H        8.03058010       1.22979372       2.36589020
H        7.96943691       1.48274152       0.61405804
H        7.99037598      -0.14956864       1.26239083
