13
 energy: -23.857994356358 gnorm: 0.000124768163 xtb: 6.2.3 (830e466)
C         9.35014385087866    1.11591945176655    2.00670796975922
C        10.67285224744524    1.88543237688905    1.78980048329772
C         8.24965172123744    1.51921380435283    1.03470643721660
C         9.82774581721301    2.39368845813369    3.83071063407630
O         8.99080655546702    1.46998339367513    3.33586089764829
O        10.81390870794437    2.66851322717832    2.95752927830804
O         9.71779987102539    2.89892569058960    4.89682192263768
H         9.49860524577808    0.03073730677083    1.98298177312408
H        11.53964799375729    1.22451197456553    1.69981316381401
H        10.62876786371252    2.54959433720765    0.92257476475512
H         8.09498228683284    2.59534866401033    1.06554211618019
H         8.52378021911038    1.22285968581436    0.02610199337215
H         7.32100761959777    1.02787162904614    1.31093856581061
13
Properties=species:S:1:pos:R:3 energy:=T -23.814183390004=T gnorm:=T 0.000725537897=T xtb:=T 6.2.3=T (830e466)=T pbc="F F F"
C        9.37629910       1.92795725       1.63124820
C       10.61263312       1.78855085       1.16917828
C        8.13352571       1.52527915       0.90699591
C        9.71476572       2.23853712       4.01500226
O        9.08765002       2.52213522       2.85267028
O       10.51363702       1.17193043       4.02822327
O        9.50855014       2.90259982       4.97764839
H       10.57330143       0.73036221       3.16407852
H       10.78519465       1.35930470       0.19968218
H       11.47880761       2.14068221       1.70414271
H        7.47349442       2.38635053       0.82273640
H        8.36931499       1.14922421      -0.08278922
H        7.60252609       0.75968630       1.47127282
