13
 energy: -23.793998661827 gnorm: 0.000595133745 xtb: 6.2.3 (830e466)
C        10.15344554770089    2.15066150675185    1.74699048925480
C         7.97918748071749    1.29804630533191    0.73310600432721
C         8.73938875698042    1.60705092013370    1.99079384305444
C        10.94233753867734    2.00656908053182    3.96270424674606
O        10.68426908641711    2.76750445504149    2.89600367830004
O         8.31297872762842    1.45098078776815    3.10021126261305
O        11.29266801707018    2.45587316768248    5.00621957352679
H        10.83638883847774    0.91885616574486    3.76983414842948
H        10.78697539777610    1.31379980424544    1.41821805000020
H        10.14201243315575    2.91525840242233    0.96769947670342
H         7.12695108598121    0.66427442933969    0.96066684089184
H         8.61961044805096    0.82116598530283   -0.00342710621934
H         7.61337664136645    2.23256898970357    0.31119949237213
13
Properties=species:S:1:pos:R:3 energy:=T -23.776546907981=T gnorm:=T 0.000477243880=T xtb:=T 6.2.3=T (830e466)=T pbc="F F F"
C       11.11653321       2.06175356       1.53447135
C        8.19032166       1.38420558       1.33128422
C        8.31925252       1.53208185       2.82276064
C        9.65477951       1.91421360       3.52915492
O       10.82420677       2.13242439       2.91471872
O        7.37955037       1.36350258       3.55293988
O        9.62775714       2.02259974       4.72364336
H       12.17742214       2.30316269       1.46488213
H       10.95730059       1.05912202       1.13429098
H       10.55053585       2.79572901       0.95867083
H        7.15744816       1.12189656       1.10837261
H        8.84084229       0.59662573       0.95950499
H        8.43363979       2.31529268       0.82552536
