13
 energy: -23.794002498049 gnorm: 0.000626023958 xtb: 6.2.3 (830e466)
C        10.22496654049268    2.08618022509488    1.85071499624716
C         8.16125066179259    1.40611339167601    0.52422020890208
C         8.75012149929407    1.66349814392340    1.88152043099354
C        10.66330442744519    1.91494902605037    4.15978232662061
O        10.62780350367520    2.67691146684473    3.06343521083153
O         8.15305100513529    1.55396206488397    2.91530970107513
O        10.89087214579000    2.35182042033095    5.24184604481307
H        10.49923583732565    0.83615796604496    3.95738380703721
H        10.82803040468160    1.19437467805324    1.62483869387396
H        10.39401523132321    2.83543751155799    1.07480841536701
H         7.23941072886794    0.83863656243084    0.62027559749056
H         8.86605317072192    0.87980689340411   -0.11429062529054
H         7.93148484345466    2.36467164970447    0.06027519203873
13
Properties=species:S:1:pos:R:3 energy:=T -23.744811773865=T gnorm:=T 0.000543726012=T xtb:=T 6.2.3=T (830e466)=T pbc="F F F"
C       10.10750128       2.12189191       1.78165837
C        8.33465857       1.55955181       0.32159235
C        9.44333002       1.92133641       3.13395034
C       10.43812787       1.55256831       4.24468613
O        9.26354851       2.53453950       0.74988546
O        8.26787171       2.02423648       3.35341589
O       10.12998300       1.44526768       5.39340568
H       11.47817468       1.40304967       3.89375451
H       10.62221908       1.17710344       1.52563853
H       10.86754973       2.90475437       1.88427161
H        7.60976034       1.31755082       1.10178949
H        8.84910473       0.64361892       0.00585697
H        7.81777049       1.99705068      -0.52978532
