13
 energy: -23.793999735169 gnorm: 0.000740246255 xtb: 6.2.3 (830e466)
C         9.89903195946395    2.46228340942908    1.92121640965076
C         8.14866911176185    1.16116732496589    0.60554318961749
C         8.86590008346270    1.32732843219299    1.91406824903444
C        10.89200654511714    1.99453732584497    4.00664210525796
O        10.23210649607718    2.85782825565543    3.23030335384429
O         8.67797078510796    0.64915831086143    2.88477698357491
O        11.11471691683440    2.20051416586553    5.15641139071796
H        11.24355108050032    1.08996382189931    3.46778581452566
H         9.50035087663850    3.34902448105277    1.42493411459046
H        10.78709708547147    2.11311045183822    1.37390681473772
H         7.33373845967672    1.88301075618060    0.57079870434126
H         8.81056940761062    1.35155256067896   -0.23457797656679
H         7.72389119227732    0.16303070353496    0.53829084667322
13
Properties=species:S:1:pos:R:3 energy:=T -23.773103818969=T gnorm:=T 0.000435665975=T xtb:=T 6.2.3=T (830e466)=T pbc="F F F"
C        9.23568323       3.00902795       1.52543289
C        9.87664651       0.55198811       1.82633624
C        8.78801031       1.61158079       1.87057222
C       10.62123858       0.65040957       3.14022358
O        8.20583748       3.93846329       1.68596136
O        7.65415514       1.37391041       2.20102734
O       11.39542892       1.52271135       3.40524818
H       10.36983896      -0.14378411       3.86311784
H       10.08766788       3.26998776       2.17105652
H        9.58858367       3.02509837       0.48374405
H        7.41551004       3.44865605       1.96583255
H       10.56393174       0.77651666       1.01132536
H        9.42706754      -0.43205620       1.71022185
