13
 energy: -23.794007316596 gnorm: 0.000686240861 xtb: 6.2.3 (830e466)
C        10.19789171586005    2.08796540148548    1.77837566755426
C         8.12211874016540    1.16066810467636    0.63167605303358
C         8.75489285442413    1.58630717369568    1.92487692891448
C        10.72674997294579    2.23973874015484    4.06947367075901
O        10.60185351872918    2.85228991472993    2.88924703888459
O         8.21398885471221    1.54582633076044    2.99385158793700
O        10.95599474403427    2.82418882601205    5.07905410041226
H        10.63453284706357    1.13521615482484    4.00952802817672
H        10.84668380811259    1.20964337766097    1.64496230503673
H        10.29510675831903    2.73824412160567    0.90705204117656
H         7.25820940690992    0.53205135164265    0.82978931592216
H         8.83492144822560    0.63831522108279   -0.00053062156389
H         7.78654533049835    2.05206528166825    0.10284388375658
13
Properties=species:S:1:pos:R:3 energy:=T -23.782529801330=T gnorm:=T 0.000405300271=T xtb:=T 6.2.3=T (830e466)=T pbc="F F F"
C        9.58683631       1.75687458       1.72996784
C        8.46540073       1.91266569       0.70727732
C        9.69848400       0.31634281       2.21138865
C       10.24968224       2.79342323       3.75341089
O        9.32058560       2.62977733       2.81234943
O        9.77654448      -0.01148275       3.35584271
O       10.06679810       3.43283007       4.73851980
H       11.21919040       2.30675900       3.51178557
H        9.71284211      -0.41348169       1.38068666
H       10.55684996       2.01097261       1.26769351
H        7.51559768       1.64645013       1.16260894
H        8.64785014       1.27419238      -0.15200201
H        8.41282825       2.94719662       0.38067069
