13
 energy: -23.795638614880 gnorm: 0.000379190836 xtb: 6.2.3 (830e466)
C        10.20129247203898    2.51665850134487    1.80227574245648
C         8.15599001240391    1.09024391433973    1.22304775696274
C         8.76789749515071    2.45503519046085    1.25361804286407
C        10.67769566150090    1.17287401533502    3.69087266553048
O        10.64002709725230    1.30213039552109    2.36884569585023
O         8.22676672110154    3.45877138931169    0.87712440434685
O        10.95884835359860    0.15607905886159    4.23946342103291
H        10.42620356110518    2.11289168143536    4.23276292760475
H        10.86748809818969    2.74618140132229    0.96319649825238
H        10.26553216923097    3.34042414811360    2.52551855340301
H         8.00730250952446    0.73637595796954    2.24260420142431
H         8.83421821593453    0.39458539542414    0.73370397180172
H         7.20044763296822    1.12024895056021    0.70726611847013
13
Properties=species:S:1:pos:R:3 energy:=T -23.723687566234=T gnorm:=T 0.000835211711=T xtb:=T 6.2.3=T (830e466)=T pbc="F F F"
C       11.08777820       3.03465412       1.14329217
C        8.14267945       0.75732197       1.59621679
C        8.74067534       1.81050148       2.47402352
C        9.60312025       1.27416816       3.60684974
O       10.99460744       1.89036556       1.47609794
O        8.55126940       3.00189180       2.36448561
O        9.72935374       0.11328249       3.87340480
H       10.10344548       2.07579975       4.18298562
H       11.94442054       3.41374267       0.56697195
H       10.30858153       3.77581785       1.39332596
H        7.58211609       0.06012661       2.21668043
H        8.94505190       0.19517619       1.12257459
H        7.49661066       1.19965135       0.84339087
