13
 energy: -23.794005311998 gnorm: 0.000567107965 xtb: 6.2.3 (830e466)
C        10.29646221159736    2.20028032109500    1.70663683352687
C         8.41676074732192    1.10802179286661    0.38138010766351
C         8.95207851546353    1.46128727042614    1.73904261404315
C        10.77283701341636    2.10397238051795    4.01232559129200
O        10.56675291196668    2.85182097675838    2.92472626005047
O         8.40747379977427    1.20118028109607    2.77486434670499
O        10.89869185486987    2.56866103353456    5.09949727974169
H        10.85239817082472    1.01789650715446    3.79744457450347
H        11.07985396897636    1.46613548506570    1.46720949063942
H        10.29039604820696    2.97656108384368    0.93932795513725
H         7.66667153243725    0.32693116408983    0.46871077801987
H         9.21446393218867    0.79630881836009   -0.28677146010328
H         7.94415929295607    1.99323288519157   -0.04171437121943
13
Properties=species:S:1:pos:R:3 energy:=T -23.730418446260=T gnorm:=T 0.000953186327=T xtb:=T 6.2.3=T (830e466)=T pbc="F F F"
C       10.46950580       2.16468889       0.99720727
C        9.22277254       1.52657336       0.39962451
C        7.92408989       0.78246500       3.62337707
C       10.39578433       1.96452738       3.34910916
O       10.19475592       2.71250338       2.28000194
O        7.31763857       1.08086279       4.52536638
O       10.12289191       2.30851446       4.45907015
H       10.87160546       0.98285261       3.12443148
H       11.27755571       1.42621325       1.07674339
H       10.80806691       3.00333833       0.38411046
H        8.87759065       0.71241168       1.03211916
H        9.44740435       1.14258129      -0.59125044
H        8.42933796       2.26475757       0.32276949
