13
 energy: -23.803911213471 gnorm: 0.000884668177 xtb: 6.2.3 (830e466)
C        10.41246938926311    1.36428936339400    1.48549949574578
C         7.89437720492689    1.59044056906139    1.88560942699505
C         8.99380353853241    1.24484317003501    0.92667684725549
C        10.59472717950037    2.46307899789521    3.55349143157863
O        10.48352241069017    1.31396805336475    2.90620564604880
O         8.82021941536900    0.91744998448609   -0.21617446367979
O        10.63048137963397    3.55511019009206    3.07010022727069
H        10.65416259761871    2.25356017547452    4.63373108027468
H        11.02712151659273    0.54857442388629    1.09712609876831
H        10.82080239980682    2.32272927875172    1.13498128037985
H         7.93000486831693    0.91222367888630    2.73669672878718
H         8.03712461231938    2.60502316766135    2.25548482876212
H         6.93067348742927    1.51119894701124    1.39056137181329
13
Properties=species:S:1:pos:R:3 energy:=T -23.799683607890=T gnorm:=T 0.000726899898=T xtb:=T 6.2.3=T (830e466)=T pbc="F F F"
C       10.53970010       1.26938530       1.35611349
C        8.23939602       2.27463078       1.91074407
C        9.17427109       1.70597165       0.86018314
C        9.87927628       1.85725878       3.51193378
O       10.93142405       1.81056390       2.59858866
O        8.82182967       1.52662533      -0.27703680
O        8.86301264       2.71632277       3.09648334
H       10.28380702       2.27236987       4.43675572
H       10.51487045       0.16598149       1.40922470
H       11.30515345       1.55359241       0.63012737
H        9.47636596       0.83921396       3.69050461
H        7.69650303       3.12903757       1.49953659
H        7.50388025       1.48153619       2.13683134
