13
 energy: -23.790820654857 gnorm: 0.000654495971 xtb: 6.2.3 (830e466)
C         9.36073575176551    1.31836023296221    2.07976329249282
C         8.50490278990575    1.01967197090355    0.85472207636727
C         9.48199330038991    2.88676352956758    3.77656249069781
C        10.76414552017782    1.73580481581839    1.64073846289172
O         8.74178095836647    2.39292562116351    2.80472444605664
O        10.57835203540090    2.51019369569694    4.07558584596435
O        11.02232482605674    2.80602634169528    1.17699916588130
H         9.42664794178694    0.44742025757287    2.74363122966116
H         8.93444222745333    3.69597029165541    4.28302345710069
H        11.51960154846905    0.93664254859038    1.74253489120216
H         7.49270620781487    0.77599642371060    1.16514925147247
H         8.92487019934608    0.18173543009303    0.30547505674279
H         8.47708669306665    1.89497884057025    0.21099033346883
13
Properties=species:S:1:pos:R:3 energy:=T -23.802381734585=T gnorm:=T 0.000445455740=T xtb:=T 6.2.3=T (830e466)=T pbc="F F F"
C        9.69211232       1.21173821       2.24611996
C        8.52883127       1.13568632       1.24026600
C        9.19313323       2.08216781       3.42738849
C       10.88648849       1.84386831       1.60517012
O        9.13957472       3.37962549       3.18588570
O        8.84854824       1.58450744       4.45788967
O       10.91006062       2.99719372       1.24696792
H        9.91981696       0.21491358       2.62740234
H        9.60548529       3.61637824       2.35129439
H       11.76906326       1.19652040       1.48198471
H        7.64124993       0.75122947       1.73662832
H        8.78841987       0.46900011       0.42103613
H        8.30680580       2.11966091       0.83186624
