13
 energy: -23.791864935808 gnorm: 0.000746757544 xtb: 6.2.3 (830e466)
C         9.33033732705660    1.48652377763717    1.94581956456750
C         8.77835579199184    1.64738412125885    0.53387245091900
C         9.24696725750218    2.65767057624430    3.96595897190511
C        10.79976960182824    1.10030964970965    1.91638391227211
O         9.16627050800195    2.71998014086276    2.64664088430390
O         9.35525318335608    1.66712564750506    4.62448335300944
O        11.68491501632152    1.74340513808316    2.39116719428111
H         8.79520416741737    0.69227050703517    2.48881722555460
H         9.16832494556318    3.67825306592627    4.37309846266427
H        10.97419905580463    0.14000144584238    1.39411497915817
H         8.90900678824953    0.72493458080651   -0.02419312152220
H         9.30041340004848    2.45378921832776    0.02572924301442
H         7.72047295685844    1.89104213076091    0.57781687987259
13
Properties=species:S:1:pos:R:3 energy:=T -23.720676280693=T gnorm:=T 0.000988535915=T xtb:=T 6.2.3=T (830e466)=T pbc="F F F"
C       10.99623937       0.99616479       3.87563390
C        7.92854272       2.34143140       0.51741225
C        8.18126100       2.35644720       1.98542729
C       11.31122507       1.05168509       2.39919627
O       11.82026457       0.93310071       4.74205573
O        8.11853728       1.40537152       2.71666969
O       10.91192909       1.89192893       1.64425578
H        9.90787997       1.00479377       4.07549197
H        8.45172849       3.35433038       2.38036597
H       11.94773800       0.21116865       2.05826280
H        7.54740258       1.37628700       0.19617813
H        8.87384552       2.54617004       0.01670892
H        7.23289635       3.13381053       0.25205130
