13
 energy: -23.784510943556 gnorm: 0.000780414463 xtb: 6.2.3 (830e466)
C         9.59677085697676    1.05990006034174    1.93588972784706
C         8.57933823590746    1.54091221642423    0.90417414226938
C         9.09228348822335    2.41487660150686    3.80363044252749
C        10.95712339338625    1.71507352525530    1.75260302699253
O         9.12928906891671    1.19510531184852    3.27245193294667
O         8.70824742317100    2.63704900413986    4.90630743843236
O        11.40435498822348    2.06766024419763    0.70252107730894
H         9.75901637088693   -0.02091564912684    1.81619758839340
H         9.46648561412794    3.20761154169854    3.11629921390897
H        11.52376681538392    1.80690901741372    2.69870120070085
H         8.30581959297331    2.57636024206203    1.09290445697775
H         7.68325309040576    0.92889983329469    0.94283187160163
H         9.02373106141710    1.47316805094368   -0.08471211990703
13
Properties=species:S:1:pos:R:3 energy:=T -23.795627272975=T gnorm:=T 0.000802778585=T xtb:=T 6.2.3=T (830e466)=T pbc="F F F"
C       10.32721313       1.11488844       2.45642301
C        8.69512582       1.76412944       0.59303214
C        9.04930073       2.41229948       3.96275685
C       10.11342177       1.48798610       0.98164624
O        9.18079521       1.29296548       3.25845780
O        8.07293400       2.68103232       4.58602107
O       11.05076853       1.52877874       0.23169367
H       10.58582771       0.05143201       2.49625921
H        9.94669765       3.06916749       3.91632975
H       11.17894389       1.68967458       2.84323758
H        8.34743713       2.66505328       1.09745921
H        8.05826945       0.94386511       0.91870401
H        8.62274498       1.90133753      -0.48222054
