13
 energy: -23.792332591600 gnorm: 0.000693160784 xtb: 6.2.3 (830e466)
C         9.50754539823618    1.04605006392010    2.22183678281951
C         8.68122376550102    1.07649643596052    0.94473342916064
C         9.07403417843293    3.04685962023743    3.31565753649485
C        10.91249843731014    1.63414528166299    2.02124416030116
O         8.82190860521166    1.76082647217349    3.27281269377588
O         9.83566659527263    3.63036913360521    2.59578056910693
O        11.77435094844241    1.56376666918449    2.84877939440188
H         9.60786100582594    0.02627435761560    2.60955239490012
H         8.48551528972698    3.51878278867138    4.11615759519919
H        11.08844419020688    2.04744470301597    1.01401476758287
H         7.68402455018127    0.68763871657180    1.13565969078382
H         9.15855806277308    0.46607199507037    0.18370527086579
H         8.59766897287889    2.09787376231065    0.57986571460744
13
Properties=species:S:1:pos:R:3 energy:=T -23.748156326470=T gnorm:=T 0.000668601913=T xtb:=T 6.2.3=T (830e466)=T pbc="F F F"
C        9.77424992       1.47289090       2.81438836
C        8.34169130       1.17858472       0.90826762
C        9.32591649       2.87413709       3.24027841
C       11.06743683       1.57595324       2.02109144
O        8.73722670       0.75325681       2.20049065
O       10.01154748       3.69207039       3.76979768
O       12.11299170       1.92148545       2.48183607
H        9.99821739       0.93283539       3.74446449
H        8.25675977       3.04764723       3.01215040
H       10.95079122       1.32316944       0.95234114
H        7.28565525       0.92805739       0.81368767
H        8.89649252       0.64725847       0.12901110
H        8.47032343       2.25525347       0.77199497
