13
 energy: -23.792332329443 gnorm: 0.000701032927 xtb: 6.2.3 (830e466)
C         9.58533287924559    1.07118489345954    2.28421325263991
C         8.56100262707771    0.90968657796398    1.17085103947829
C         9.18570347094130    3.15491666527503    3.22714832575495
C        10.89024254545609    1.71104802471454    1.78693308212924
O         9.03161077988896    1.85929478752390    3.35982866570209
O         9.76778392898755    3.69853196118532    2.33046191867720
O        11.87864225724213    1.78594038967864    2.45745559990099
H         9.82356822768647    0.10884298216141    2.75063988732278
H         8.70398352981741    3.67733117557088    4.06726043914333
H        10.86684609259022    2.01699324805109    0.72825749775643
H         7.63370160684245    0.50808662980834    1.57190726420522
H         8.94373627769132    0.22783359265115    0.41682044865847
H         8.35724577653283    1.87291907195619    0.70812257863114
13
Properties=species:S:1:pos:R:3 energy:=T -23.785011192391=T gnorm:=T 0.000860598439=T xtb:=T 6.2.3=T (830e466)=T pbc="F F F"
C        9.87284777       1.00369268       2.11862251
C        8.85887080       1.54296933       1.06207096
C        8.40796142       2.38531344       3.09273214
C       11.21814260       1.67773568       1.91535009
O        9.27350227       1.31765845       3.35312879
O        7.84046149       2.12788235       1.83717130
O       11.70446782       2.49627902       2.63485210
H       10.00177427      -0.08197060       2.06591784
H        8.96052188       3.34366193       3.08347376
H       11.71683964       1.33770819       0.98363644
H        7.62146193       2.40692615       3.84917631
H        8.41738365       0.75402464       0.45148524
H        9.33516446       2.29072873       0.41228253
