10
 energy: -13.497804836543 gnorm: 0.000401531816 xtb: 6.2.3 (830e466)
C         9.15311605794568    2.32493743694205    2.08315163453759
C         7.89301118426618    2.68150159070717    2.81547741691103
C         6.68182722316265    2.33675749767343    2.42200515577463
O        10.00822912073711    3.43417981364125    1.90104055759270
H         9.52895938148827    4.11636393570684    1.41770894524489
H         8.91241467523748    1.85619062395985    1.11784818789562
H         9.73565433399746    1.61293958208442    2.67786849142805
H         8.04434787815103    3.27299342059414    3.70893928787333
H         6.52137034532264    1.75199653706933    1.53029009680614
H         5.80144979969147    2.60924956162152    2.97836022593602
10
Properties=species:S:1:pos:R:3 energy:=T -13.449665918518=T gnorm:=T 0.000832361364=T xtb:=T 6.2.3=T (830e466)=T pbc="F F F"
C        9.64052186       1.72245407       2.06692601
C        7.64429524       3.72519069       2.51844143
C        6.92624869       2.64492697       2.27890824
O        9.90946725       1.38202639       3.17961975
H        7.87034501       4.44364751       1.74664087
H        9.02306173       1.11190013       1.38741266
H       10.01920953       2.65635865       1.61956305
H        8.02680266       3.94721031       3.50082367
H        6.53108097       2.42731448       1.29938636
H        6.68934706       1.93608080       3.05496796
