10
 energy: -13.494754756207 gnorm: 0.000644620018 xtb: 6.2.3 (830e466)
C         9.03211285602502    2.48159860019471    2.06792764791351
C         7.69183585167049    2.88180258186149    2.61034588014785
C         6.54027166272345    2.38917781530082    2.19761691933585
O        10.03037392778724    3.21340327999483    2.74621835428087
H        10.89563136894236    2.96417510259097    2.40651037969937
H         9.18356505128961    1.39962141283798    2.21002866972729
H         9.07229686235143    2.68593758830768    0.98604818159360
H         7.74504667658689    3.62790796994568    3.38927493739941
H         6.48604102907188    1.64420292176466    1.41985768122992
H         5.60322471355164    2.70897272720119    2.61868134867233
10
Properties=species:S:1:pos:R:3 energy:=T -13.436377178138=T gnorm:=T 0.000632835324=T xtb:=T 6.2.3=T (830e466)=T pbc="F F F"
C        9.65050413       1.91599664       1.41779443
C        6.48105043       3.29719077       3.15473845
C        5.28911645       3.24147671       3.20565213
O        9.64323697       2.88441437       2.43874026
H       10.54799647       3.14768121       2.63343888
H       10.20046729       1.01848620       1.71878144
H       10.08514290       2.30965516       0.49326536
H        7.53049185       3.33631716       3.09907466
H        8.61121791       1.64916240       1.23439980
H        4.24117559       3.19641939       3.25662459
