10
 energy: -13.497359629110 gnorm: 0.000776534284 xtb: 6.2.3 (830e466)
C         8.94964178285943    2.73907003571461    1.66315988814399
C         7.92222351836253    2.29450915001534    2.66220813070616
C         6.62927765424054    2.53618932921994    2.56572182926403
O        10.08241126307396    3.33152959808385    2.25755835367056
H        10.44499368133857    2.72154539727953    2.91079578314978
H         9.25480664665446    1.86892083277296    1.05578275072525
H         8.53574110828762    3.49557198197416    0.99367098249495
H         8.31552193699871    1.73407088100836    3.50261588862744
H         5.92693782011841    2.18109425854580    3.30033307267635
H         6.21893458806577    3.09439853538545    1.74084332054151
10
Properties=species:S:1:pos:R:3 energy:=T -13.416225478170=T gnorm:=T 0.000909423110=T xtb:=T 6.2.3=T (830e466)=T pbc="F F F"
C        9.08800006       2.74008453       1.57295832
C        7.67941804       3.06798955       1.70625271
C        6.52473518       3.34767233       1.84611941
O        9.80255819       3.27696640       2.67033275
H       10.72905270       3.03146187       2.58783494
H        9.19016804       1.64318658       1.53819924
H        9.45954014       3.15739299       0.62280568
H        7.13897483       1.38079329       3.83711857
H        7.15912777       0.76527961       4.31682655
H        5.50891505       3.58607287       1.95424182
