10
 energy: -13.494752248871 gnorm: 0.000818887234 xtb: 6.2.3 (830e466)
C         9.01997711772211    2.59817288810933    1.99551311439767
C         7.70635254858907    2.73539417958638    2.70718075557441
C         6.55709387945540    2.27454069178758    2.25344920564290
O        10.02096445837194    3.22173838966769    2.77061061548982
H        10.86491767886441    3.15727987267887    2.31234011405563
H         9.25443172220102    1.53136520264145    1.84991727347684
H         8.95525467633062    3.06526409471825    1.00004456171326
H         7.77731568478029    3.25802255967168    3.64937550554141
H         6.48405563991571    1.75353890365571    1.31237075455205
H         5.64014659376943    2.40149321748307    2.80179809955602
10
Properties=species:S:1:pos:R:3 energy:=T -13.420010608305=T gnorm:=T 0.000491179508=T xtb:=T 6.2.3=T (830e466)=T pbc="F F F"
C        8.98247169       3.12630161       1.37441541
C        7.77874280       2.68615334       1.59956698
C        6.57429457       2.25761415       1.80365925
O       10.04382735       2.88317253       2.21703984
H       10.83210829       3.31379880       1.87651246
H        8.46479709       1.97891625       4.37466429
H        9.18863476       3.71481854       0.48644834
H        8.32934214       1.89649464       5.13642358
H        6.23723066       1.30314829       1.42820044
H        5.84906066       2.83639185       2.35566941
