11
 energy: -17.577930101274 gnorm: 0.000731429518 xtb: 6.2.3 (830e466)
C         6.66089108983930    2.43831359152823    2.16285895473469
C         6.79875139600797    1.53995573920478    0.92728002568571
C         8.03368707210051    2.70247028911639    2.74256416159132
O         6.07866659732431    3.68552539492507    1.86479859610967
O         8.74876231498643    1.86533013670594    3.21288888510827
H         5.24526701976692    3.54245212227441    1.40287956536251
H         6.06717974872318    1.90688724026104    2.92614492864192
H         8.32470621390161    3.76583980444262    2.67623904017205
H         5.81699403993260    1.27081583873589    0.54199360585408
H         7.35097937238949    2.06462577198251    0.15070420257670
H         7.33512513502766    0.63418407082309    1.19463803416303
11
Properties=species:S:1:pos:R:3 energy:=T -17.578775851318=T gnorm:=T 0.000395410388=T xtb:=T 6.2.3=T (830e466)=T pbc="F F F"
C        6.75893430       2.31800444       1.71360913
C        6.97660717       1.51907971       0.46259300
C        7.72612916       2.54309726       2.59799460
O        5.46277510       2.77603199       1.82503190
O        7.64962643       3.25472008       3.77301799
H        5.34208675       3.28614252       2.63323732
H        6.76109991       3.60298051       3.90793653
H        8.71640537       2.15194478       2.44251675
H        6.04020815       1.48141651      -0.08595369
H        7.73678266       1.97816837      -0.16511538
H        7.29035500       0.50481382       0.69812184
