11
 energy: -17.576755651756 gnorm: 0.000828495048 xtb: 6.2.3 (830e466)
C         6.54976598709742    2.39145334969184    2.01066025632964
C         6.91146215362383    1.47352157528315    0.83821454149128
C         7.81544341916518    2.63659782624190    2.80538398445712
O         6.02412787524271    3.58639374080751    1.47884214098350
O         8.25099841704822    1.90707432540016    3.64857895634601
H         5.78254646898210    4.18374167535927    2.19430127301263
H         5.81105150486357    1.88534455536438    2.65179814589859
H         8.33547428443350    3.57093588418914    2.51126853508820
H         6.02521316125684    1.30615781491797    0.23308944209236
H         7.66823853318480    1.95017011846911    0.22082564733143
H         7.28687819510182    0.52500913427559    1.21002707696926
11
Properties=species:S:1:pos:R:3 energy:=T -17.587207542515=T gnorm:=T 0.000969149068=T xtb:=T 6.2.3=T (830e466)=T pbc="F F F"
C        6.47566415       2.06195222       1.80767677
C        6.96303679       1.24866021       0.63948612
C        7.30941591       3.08022129       2.45205021
O        6.25878253       3.44134490       1.61414200
O        7.17566682       3.31468358       3.79805685
H        7.00753087       4.25257923       3.95108223
H        5.72515270       1.58902670       2.43549462
H        8.30321140       3.28887459       2.05100827
H        6.13036760       1.00335710      -0.01560306
H        7.69993564       1.80934441       0.07009970
H        7.41243559       0.32635577       0.99949628
