11
 energy: -17.580787103631 gnorm: 0.000971534410 xtb: 6.2.3 (830e466)
C         6.56520353361553    2.14768353585386    2.12717152764983
C         6.95482407006713    1.60786037429016    0.74016910567387
C         7.77312832168513    2.81168692686655    2.74164383060291
O         5.49444184461743    3.04537314510176    2.05165221829767
O         7.79934991683105    3.98050447853704    3.01662063638308
H         5.84571315421888    3.92842121387426    2.25179305260043
H         6.26728494292541    1.30300472695551    2.76668958552906
H         8.64244591960720    2.14939056651152    2.89099253222958
H         6.07989989235556    1.15888676406933    0.27953158152777
H         7.30005815639061    2.42223130572597    0.10769355577325
H         7.73875024768608    0.86134696221403    0.82913237373257
11
Properties=species:S:1:pos:R:3 energy:=T -17.542727650653=T gnorm:=T 0.000997827442=T xtb:=T 6.2.3=T (830e466)=T pbc="F F F"
C        6.11194699       2.66570670       3.20712358
C        7.73337695       1.36385905       0.21955507
C        7.19043285       3.30355276       3.54656903
O        5.08707927       3.11664588       2.39348123
O        8.17735534       3.83643406       3.88281319
H        5.27052596       4.01870017       2.11089286
H        5.95531842       1.65961439       3.56570116
H        8.39698140       1.89286101       0.89168550
H        6.70569289       1.59525954       0.46706519
H        7.93630310       1.66532299      -0.79988078
H        7.89608682       0.29843346       0.31808395
