11
 energy: -17.576755779860 gnorm: 0.000929385811 xtb: 6.2.3 (830e466)
C         6.61712453581989    2.41038427305277    2.09605712144003
C         7.56769479400326    1.21201399425908    2.00515194448316
C         6.53217244296974    3.03483173524075    0.71898768186224
O         7.14031277299875    3.30774281574153    3.04904558846204
O         5.83591784311221    2.64291764860786   -0.17264808217175
H         6.54847183980948    4.06079719499174    3.14877869507389
H         5.61779763827561    2.05583994576567    2.39342084215408
H         7.20982486844446    3.90185794794121    0.59502491288562
H         7.19132706383824    0.49323497328730    1.28364093865131
H         8.55458049436266    1.55216490810163    1.70324197303337
H         7.64576570636569    0.74471456301046    2.98258838412601
11
Properties=species:S:1:pos:R:3 energy:=T -17.568654759161=T gnorm:=T 0.000500144332=T xtb:=T 6.2.3=T (830e466)=T pbc="F F F"
C        6.68912898       2.42340894       2.50662951
C        7.86815658       1.60556910       2.07101616
C        7.04662368       2.32608240       1.04450742
O        6.94475113       3.59942680       3.20629414
O        6.26413646       1.55458717       0.18947436
H        6.29305542       4.27009593       2.97064020
H        5.80178180       1.88520721       2.83542259
H        7.48574169       3.20887819       0.58253208
H        5.44150678       2.01736516      -0.00875605
H        8.84940526       1.99262742       2.28957913
H        7.77670221       0.53325168       2.11595046
