11
 energy: -17.578887485507 gnorm: 0.000190463002 xtb: 6.2.3 (830e466)
C         6.49676949373782    2.38819147269501    2.06457105384825
C         6.99874264236863    1.34033376473969    1.06798852742305
C         7.65331110336044    2.95255757907888    2.87019685391227
O         5.73721315900771    3.40676417798247    1.46159263229988
O         8.51847630841123    2.30152449041103    3.38081641051207
H         6.24418172096901    3.79389643859516    0.73797108232715
H         5.81510229036164    1.91160159930077    2.78198589090806
H         7.62484849355014    4.05782268207053    2.95400641568557
H         6.15901916211539    0.87127869021231    0.56235598500094
H         7.64244093336841    1.80827097120960    0.32413875072316
H         7.57099469274964    0.58426813370462    1.59737639735968
11
Properties=species:S:1:pos:R:3 energy:=T -17.556951630894=T gnorm:=T 0.000865097495=T xtb:=T 6.2.3=T (830e466)=T pbc="F F F"
C        6.89216336       1.20732544       2.63987304
C        6.82199158       1.07339801       1.14078508
C        7.10439837       2.32926390       3.23876573
O        7.17410256       4.45024628       0.87408007
O        7.29516513       3.35396390       3.76914664
H        6.37817705       4.98591019       0.88937030
H        6.76243361       0.31666774       3.23227413
H        7.62036211       4.59352781       1.71265956
H        5.85125201       0.67676695       0.84654475
H        6.96807643       2.04082867       0.66899586
H        7.59297777       0.38861110       0.79050483
