10
 energy: -13.533578975219 gnorm: 0.000258872916 xtb: 6.2.3 (830e466)
C        -2.63148118899247   -0.75671922520379   -0.23090846011730
C        -1.30309116167495    1.35011571131860    0.28202119145580
C        -1.35610199575465   -0.15602363677756    0.31353006530241
O        -0.45557315629347   -0.83300145186798    0.73818972588191
H        -2.38610763305678   -1.42250703692491   -1.05639001355276
H        -3.32931834925156    0.00264680662424   -0.56856597458798
H        -3.09661337127346   -1.36403898885071    0.54350503799032
H        -0.36032471682252    1.70714518098714    0.68764957013198
H        -2.12829778184750    1.75395617301051    0.86536396462181
H        -1.41350064503263    1.69512646768447   -0.74419510712619
10
Properties=species:S:1:pos:R:3 energy:=T -13.520299147614=T gnorm:=T 0.000272534497=T xtb:=T 6.2.3=T (830e466)=T pbc="F F F"
C       -2.77879025      -0.40431345      -0.30908416
C       -1.89542620       0.78545847       0.03902819
C       -0.58152831       0.37681395       0.63861053
O       -0.21986357      -0.74668934       0.83983564
H       -2.27400538      -1.04730055      -1.02548754
H       -3.72052070      -0.07052153      -0.73713072
H       -2.98507402      -0.99061050       0.58264377
H        0.06615604       1.24082428       0.89664043
H       -2.39234878       1.44693060       0.75446916
H       -1.67900884       1.38610805      -0.84932530
