10
 energy: -13.534140146545 gnorm: 0.000226341944 xtb: 6.2.3 (830e466)
C        -2.58160000842173   -0.84748777108797    0.07526357965647
C        -1.35912102343418    1.36826477522609    0.24466241579402
C        -1.33078778928961   -0.06221893320982   -0.23582480153311
O        -0.39030813860486   -0.53660559836547   -0.81784283148788
H        -2.49081031471034   -1.86383671769897   -0.29820772113640
H        -3.44185411381142   -0.36735333400365   -0.38601011486383
H        -2.74430490848189   -0.86969485726995    1.15061112556778
H        -1.49676257934161    1.39148821980254    1.32348302042242
H        -2.19431816637962    1.89381383095460   -0.21314057792305
H        -0.43053295752475    1.87043038565260   -0.01271409449643
10
Properties=species:S:1:pos:R:3 energy:=T -13.494673172459=T gnorm:=T 0.000340818156=T xtb:=T 6.2.3=T (830e466)=T pbc="F F F"
C       -3.16706279      -0.95112906       0.72094923
C       -0.78601284       1.80405341      -0.56440729
C       -0.14649394       0.68569329      -0.53849487
O        0.43370914      -0.32090505      -0.51598850
H       -2.51277509      -1.43423692       0.00716903
H       -3.70505814      -0.14942991       0.23201281
H       -3.87275421      -1.67337230       1.11029404
H       -2.57638261      -0.55053772       1.53479013
H       -1.55930493       2.01642650       0.14660728
H       -0.56826460       2.55023777      -1.30265186
