10
 energy: -13.531709933934 gnorm: 0.000394321830 xtb: 6.2.3 (830e466)
C        -2.68193248667182   -0.79160699871476   -0.00600114475272
C        -1.30793222745226    1.37494882589079    0.18181587318443
C        -1.32501610605848   -0.13127561187912    0.06592944509605
O        -0.30637370915903   -0.77438607494581    0.03249176662304
H        -2.74488784637577   -1.36540741078263   -0.92912369359915
H        -3.49808850882942   -0.07850386199954    0.03596762063341
H        -2.77220488576888   -1.49940016257781    0.81634038420749
H        -0.77400144914488    1.65140913587576    1.08947962513112
H        -2.30326856970687    1.80551604956694    0.19929522434781
H        -0.74669421083261    1.78539610956619   -0.65598510087148
10
Properties=species:S:1:pos:R:3 energy:=T -13.518540245939=T gnorm:=T 0.000930732177=T xtb:=T 6.2.3=T (830e466)=T pbc="F F F"
C       -2.98977063      -0.49746919       0.20599773
C       -1.32951510       1.37350272       0.15635679
C       -1.75293847      -0.05599951       0.02663037
O       -0.70767406      -0.86842551      -0.30221973
H       -1.01530005      -1.77979809      -0.37745909
H       -3.78819494       0.17081747       0.46430884
H       -3.24463454      -1.53943014       0.10075019
H       -0.56041795       1.45729090       0.92234069
H       -2.17290342       2.00371515       0.41792041
H       -0.89905084       1.71248620      -0.78441620
