13
 energy: -23.809875064548 gnorm: 0.000740584683 xtb: 6.2.3 (830e466)
C        10.53403236054734    1.84424795196759    1.75384208518939
C         9.57534246179772    2.59672187346849    3.79873984811374
C         9.60533903918261    0.71446884690499    1.42588491660525
C         8.74229326108518    0.73301010196939    0.42887346732646
O        10.61307677563430    2.08680037597189    3.16212465274061
O         8.53234563848334    2.89401353866925    2.99885765431428
O         9.57131274434350    2.78729069455392    4.97829856503233
H         7.81416243525534    3.26809134060451    3.52833173710700
H        11.56077911018607    1.58117537015738    1.48021730418715
H        10.23824453215645    2.75787776970712    1.22930912052342
H         9.69428573431818   -0.14281368939101    2.07949777442869
H         8.10348811728239   -0.10642704722989    0.21631352444325
H         8.64480778972759    1.58774287264637   -0.22010065001141
13
Properties=species:S:1:pos:R:3 energy:=T -23.791142095139=T gnorm:=T 0.000911092633=T xtb:=T 6.2.3=T (830e466)=T pbc="F F F"
C       10.88984814       2.31424872       1.56386891
C        9.80157583       2.85316924       3.46931888
C        9.44591644       1.87758615       1.49290896
C        8.79444376       1.26012739       0.52658331
O       10.98765335       2.90537952       2.84543142
O        8.87573551       2.25038163       2.68478462
O        9.58134120       3.27178346       4.55423286
H        7.55638931       0.05377196       3.62180566
H       11.58859318       1.47397377       1.49590540
H       11.14403434       3.05709548       0.80037426
H        7.51467736      -0.72036325       3.55672275
H        7.75548775       1.01281235       0.63249885
H        9.29381383       0.99223359      -0.38424587
