13
 energy: -23.811169983163 gnorm: 0.000830755909 xtb: 6.2.3 (830e466)
C        10.21153936680843    1.86703299863807    1.72376993740811
C         9.30004077026893    3.07657731644988    3.54646548964315
C         9.46219571500677    0.57156443567442    1.66258620986236
C         9.29621695524873   -0.13177628133136    0.55943634143540
O         9.37779648744922    2.92601503058109    2.21353375361513
O         8.46881813236441    4.07162678903814    3.84787138115796
O         9.88987744673009    2.43018952863834    4.35314618890396
H         8.09899204732567    4.46519259261481    3.04423855977052
H        11.07249595281623    1.76750625714681    2.39566651231352
H        10.53765959399299    2.18888029561656    0.73334048657163
H         9.05268546065212    0.24358872466605    2.60798834261668
H         8.76015497748342   -1.06473791180071    0.55812808915157
H         9.70122709385298    0.19055022406791   -0.38576129244997
13
Properties=species:S:1:pos:R:3 energy:=T -23.811371219858=T gnorm:=T 0.000349466489=T xtb:=T 6.2.3=T (830e466)=T pbc="F F F"
C       10.12754847       1.99708856       1.59397412
C        9.29615828       3.27390446       4.66695007
C        9.30476799       0.74346853       1.56543692
C        9.23534408      -0.07646821       0.53422640
O        9.39160457       3.11651248       2.05230588
O        8.25054436       3.73684581       4.62611906
O       10.33503734       2.80527105       4.76972104
H        8.61998812       3.23181035       1.48582841
H       10.94731157       1.88602769       2.31141019
H       10.55501057       2.19748284       0.60191810
H        8.74035314       0.55449603       2.46915149
H        8.63494861      -0.96962987       0.55479783
H        9.79108290       0.10540026      -0.37142952
