13
 energy: -23.811062811691 gnorm: 0.000919864132 xtb: 6.2.3 (830e466)
C        10.62222433470848    1.89231126339908    2.11930287852679
C         8.68904345598678    3.23665014778384    2.27174439201165
C        10.23448448322943    0.45989135495712    2.33648798694037
C         9.08309993230225   -0.08332350162583    1.99386149123560
O         9.61102944618676    2.66395076572586    1.47663147315634
O         7.78634042107771    3.88079563698620    1.53376541612704
O         8.67611396277582    3.19813819119935    3.46068687877453
H         7.99335614602424    3.80199806049455    0.59109413321764
H        11.49728225732306    1.95432094910252    1.46531731491275
H        10.86004919151637    2.35309632207899    3.08621173900382
H        11.00515961813423   -0.11969696006172    2.82546151103990
H         8.86704031709754   -1.11801712700906    2.19099600710045
H         8.30448643363724    0.48226489696915    1.50873877795318
13
Properties=species:S:1:pos:R:3 energy:=T -23.736286244766=T gnorm:=T 0.000562230943=T xtb:=T 6.2.3=T (830e466)=T pbc="F F F"
C       11.50792173       3.15281976       1.80201036
C        8.85235057       2.16309515       2.72167853
C        8.93481921       0.68285129       2.62631586
C        8.24384689      -0.07264729       1.78537051
O       11.17525495       2.24388059       1.09971391
O        8.31081131       2.81315850       1.68216107
O        9.24964642       2.76785766       3.68285034
H        8.14128645       2.22174969       0.93649011
H       11.23366258       4.19734247       1.58950340
H       12.10829384       3.00996365       2.71327697
H        9.59868062       0.24414701       3.35666738
H        8.33545405      -1.14547870       1.79376620
H        7.53768136       0.32364020       1.07049534
