13
 energy: -23.810071513319 gnorm: 0.000639109750 xtb: 6.2.3 (830e466)
C        10.68532246540271    1.77363570072142    1.85946323126121
C         9.17709171663332    2.67783432231532    3.45645587184787
C         9.80248271477464    0.94497000938016    0.97186136642634
C         8.74407542954424    0.26685376385956    1.37011123086191
O        10.20719696289636    1.89390907454407    3.19615432396081
O         8.74391502449684    3.39088549479196    2.39779192602518
O         8.68565668810215    2.75885266408559    4.54269227016049
H         7.99829893483743    3.94619824291284    2.66471965186874
H        11.66422024313944    1.29429518303644    1.96230374369379
H        10.82454560781317    2.76775681552276    1.41859596591064
H        10.11901981056667    0.93979698590237   -0.06198867384225
H         8.42492415752579    0.25933675930393    2.39946197177170
H         8.15305024426721   -0.31192501637643    0.68247712005360
13
Properties=species:S:1:pos:R:3 energy:=T -23.790961926282=T gnorm:=T 0.000197481375=T xtb:=T 6.2.3=T (830e466)=T pbc="F F F"
C       11.09196216       1.81861686       1.69920520
C        9.01623309       2.07287354       2.67599650
C       10.09006177       1.04660100       0.90451626
C        8.89584232       1.18119623       1.45001249
O       10.35550893       2.41251132       2.75825894
O        8.28284271       3.25913012       2.53878031
O        8.67425274       1.39694784       3.85494757
H        7.34109114       3.09466751       2.65884259
H       11.87112601       1.17298567       2.12214213
H       11.56963671       2.60878426       1.10738185
H       10.36436458       0.48639717       0.03019386
H        7.71941319       1.28778153       3.92166164
H        7.95746464       0.76390694       1.13816065
