13
 energy: -23.809867875478 gnorm: 0.000481238279 xtb: 6.2.3 (830e466)
C        10.52172973494657    1.85076413502707    1.68273920135241
C         9.58336030037226    2.84606924978158    3.63217031892438
C         9.68038321789013    0.61600189672873    1.56341141702842
C         8.71077815656156    0.46459007362323    0.68262030994933
O        10.62610946490590    2.29340106036026    3.04118924968712
O         8.51347997361239    3.00207451799290    2.82811007347299
O         9.59629433163563    3.18887650771004    4.77658987780623
H         7.79364338498266    3.41768113794051    3.32286197348935
H        11.55669282784253    1.63343824299438    1.40140507620381
H        10.12939962454821    2.65457996922697    1.05285074531212
H         9.92469153596865   -0.16284791672551    2.27269134298063
H         8.13665865135245   -0.44353960325793    0.62295441143011
H         8.45646879538108    1.24122072859776   -0.01938399763694
13
Properties=species:S:1:pos:R:3 energy:=T -23.700023896652=T gnorm:=T 0.000942051711=T xtb:=T 6.2.3=T (830e466)=T pbc="F F F"
C       10.61235044       1.91219400       1.44648058
C        8.74763367       2.92783197       3.81765178
C        9.69162290       0.74348529       1.64424180
C        8.72010325       0.43038054       0.80849354
O       10.71577200       2.74143887       2.58826159
O        9.48829242       3.42717317       2.83838884
O        8.93816701       1.97167483       4.49312214
H        7.87438255       3.60652093       3.88485611
H       11.64699644       1.57272820       1.32898535
H       10.32037429       2.50341919       0.56940697
H        9.86027997       0.18088195       2.55146388
H        8.07499988      -0.41385772       0.97920261
H        8.53871518       0.99843877      -0.09034520
