13
 energy: -23.799768946257 gnorm: 0.000798161164 xtb: 6.2.3 (830e466)
C        10.64026588656336    1.81094136581708    1.96641011675786
C         9.11672299888116    2.77440402808508    3.58111112324639
C         9.75201363257642    1.04816979067492    1.01893766853116
C         8.65724279152247    0.39521015632109    1.36520341387371
O        10.13583421933195    1.94762715250608    3.28800029095428
O         8.47765555459965    3.35507497171446    2.55957566019038
O         8.81522029031897    2.97432017956536    4.71341790439201
H         8.68028109335987    2.96259866477257    1.69725139892451
H        11.57968284481881    1.26239058751937    2.09568553595442
H        10.88894393215693    2.79780304696617    1.54786582821984
H        10.10672659085684    1.05256243101436   -0.00228505313012
H         8.30732175208855    0.36861104051708    2.38441326448204
H         8.07176841292505   -0.14722341547359    0.64462284760351
13
Properties=species:S:1:pos:R:3 energy:=T -23.782072616584=T gnorm:=T 0.000781100996=T xtb:=T 6.2.3=T (830e466)=T pbc="F F F"
C       11.31944208       1.99562709       1.96630760
C        9.52765582       2.93802065       3.32771819
C       10.23909971       1.48878316       1.06869446
C        8.97607801       1.73636527       1.36727371
O       10.81778299       2.72620379       3.08976612
O        8.59803748       2.44703462       2.47670759
O        9.18117810       3.55649114       4.28407605
H        5.97619243       0.08813597       2.45819780
H       11.91724850       1.16691208       2.36852894
H       11.99535021       2.67146268       1.42559371
H       10.52673922       0.93085470       0.19700999
H        6.03524893      -0.56242580       2.03543433
H        8.11962652       1.41902465       0.79490152
