13
 energy: -23.800190930836 gnorm: 0.000897971053 xtb: 6.2.3 (830e466)
C        10.49303403586549    1.83418388054071    1.76995622765493
C         9.62482559661322    2.97258719153236    3.72898838288072
C         9.51869292846559    0.69490026248726    1.65627863241578
C         8.58195311840760    0.61070783604840    0.72765589313781
O        10.62627946343932    2.32892917773684    3.10192905662049
O         8.44501493683198    3.03928562205702    3.10573022448699
O         9.80836551816948    3.46228834329058    4.79657760469726
H         8.37673547428083    2.47208191349862    2.32205324481963
H        11.50027175756137    1.47898927563376    1.52899701889609
H        10.23831572994353    2.65025915083502    1.08026199119218
H         9.64050450895563   -0.07693289640645    2.40393616590421
H         7.92004535728480   -0.23511742617563    0.66631680828876
H         8.45576157418115    1.37031766892155   -0.02866125099484
13
Properties=species:S:1:pos:R:3 energy:=T -23.750035921660=T gnorm:=T 0.000524511612=T xtb:=T 6.2.3=T (830e466)=T pbc="F F F"
C       10.89756737       1.59093141       0.78393142
C        9.15363430       2.68071064       4.10524285
C        9.68079560       1.14320608       0.78394914
C        8.46344543       0.69804074       0.79211160
O       10.03337518       1.68787722       3.91171151
O        8.48384863       3.09022169       3.01873829
O        8.97830190       3.16674299       5.17290606
H        8.64690871       2.57508361       2.20934575
H       11.72641865       0.96195986       0.50218492
H       11.14014248       2.61444395       1.02567258
H       10.15974383       1.41676764       2.98485721
H        8.02209936       0.22817173       1.65747342
H        7.84351855       0.74832245      -0.08810474
