13
 energy: -23.800179508579 gnorm: 0.000772268664 xtb: 6.2.3 (830e466)
C        10.48110955441293    1.78163360268085    1.75753322732455
C         9.68376189243467    3.12170467241816    3.61556051143633
C         9.46871411878152    0.67023467969454    1.75801944929406
C         8.55302822423679    0.50219163856275    0.82017238755836
O        10.65242539545987    2.38995744272241    3.03680596174903
O         8.49157687722865    3.15773712177388    3.01311088814110
O         9.90385018885480    3.71053389906335    4.62429653141784
H         8.39409482745003    2.52337817550537    2.28607047112808
H        11.47242670357647    1.37264609993753    1.53644578047702
H        10.24283592405993    2.54040641389284    0.99978846838207
H         9.54815862866164   -0.00997885615918    2.59520519178545
H         7.86669862413059   -0.32608936240827    0.84145980644432
H         8.47101904071235    1.16804447231601   -0.02437867513830
13
Properties=species:S:1:pos:R:3 energy:=T -23.811364418263=T gnorm:=T 0.000710667401=T xtb:=T 6.2.3=T (830e466)=T pbc="F F F"
C        9.78649388       2.07050632       1.41207380
C       10.58837105       3.07871988       4.61003671
C        9.08401551       0.75482387       1.56762788
C        8.58445046       0.05584530       0.56638144
O       11.50946828       2.58118438       4.14746430
O        9.32192350       3.04489789       2.32832803
O        9.69543232       3.56640945       5.13343975
H        8.36976522       3.14587372       2.21569304
H       10.85022752       1.95084940       1.64328892
H        9.69152010       2.43647345       0.38040650
H        8.99875187       0.40849502       2.58910328
H        8.08976469      -0.88771123       0.71995686
H        8.65951561       0.39603256      -0.45371051
