10
 energy: -13.516890960078 gnorm: 0.000961576404 xtb: 6.2.3 (830e466)
C        -1.83342989551437   -0.27736126713280   -0.60399883457094
C        -1.44516890113612    1.13411486902484   -0.63652698655985
C        -1.89222687531618   -1.04719639684411    0.69020504653689
O        -0.58136341693058    0.12630433285039   -1.07634501684602
H        -2.51127114477348   -0.63026147721248   -1.38003218373060
H        -1.83737307290299    1.78755155438861   -1.40776506064271
H        -1.15776810885218    1.62602654059350    0.28668453628786
H        -1.66141554377162   -2.09525018562237    0.51259836502305
H        -2.89059418321875   -0.97499507425653    1.11648698428474
H        -1.16996885758374   -0.64813289578906    1.39800315021757
10
Properties=species:S:1:pos:R:3 energy:=T -13.533578975333=T gnorm:=T 0.000258867615=T xtb:=T 6.2.3=T (830e466)=T pbc="F F F"
C       -1.12498132      -0.20356488      -0.39134269
C       -2.01956425       0.93639386      -0.80664240
C       -1.67443191      -1.06778781       0.71999121
O       -0.05501793      -0.41412603      -0.90166534
H       -2.97631093       0.54197053      -1.14340602
H       -1.55952517       1.51036588      -1.60647553
H       -2.20265850       1.58348515       0.04898022
H       -1.74405595      -2.09577085       0.36884406
H       -2.64898208      -0.72963966       1.05693890
H       -0.97505195      -1.06052619       1.55408758
