12
 energy: -21.244005602285 gnorm: 0.000568663001 xtb: 6.2.3 (830e466)
C         0.12551311448372   -0.02474012951565    0.70625839075536
N         1.03996193349930   -0.80879326087897   -0.12140074992435
O        -0.74308666174864   -0.87923434022690    1.35666385429059
O        -0.50775853004756    0.91504018985444   -0.08211614216471
H        -1.29145367775742   -1.33113718368025    0.69821371613443
H        -1.05356179375684    0.45799907398290   -0.73935900624283
H         0.63607576182183    0.54440681691072    1.50093712387518
H         1.55290797020244   -1.46006512658130    0.46239612481553
H         1.70113532162450   -0.18877689642222   -0.57575638659998
C        -0.50860582303189   -2.00431442458938   -1.85827865375548
N        -1.53331831972227   -1.59249316902191   -1.57314170935229
H         0.41529070442499   -2.41709154984328   -2.16261656183047
12
Properties=species:S:1:pos:R:3 energy:=T -21.244774895037=T gnorm:=T 0.000734743702=T xtb:=T 6.2.3=T (830e466)=T pbc="F F F"
C       -0.05613117       0.05938660       0.33969886
N        0.38535199      -0.48133954      -0.95200328
O       -0.91653202      -0.82905811       0.95193128
O       -0.68449679       1.27496983       0.22121566
H       -0.52468470      -1.70773721       1.01122300
H       -1.62087169       1.12151487       0.03251594
H        0.86600939       0.23231727       0.92155855
H        1.63724708      -3.21570640       0.68869650
H        1.12320485       0.04739661      -1.39805279
C       -0.52346848      -0.97608275      -1.78003282
N       -1.30162940      -1.47540513      -2.45652400
H        1.44910093      -2.83945603       0.03157311
