12
 energy: -21.243199107964 gnorm: 0.000542439841 xtb: 6.2.3 (830e466)
C        -0.26268776263960   -0.22502332564960    0.43383141494518
N         0.74897990229753    0.35023512833424   -0.40637069716153
O        -1.15398756852316   -1.08107659058764   -0.21303835111953
O        -1.01516517154059    0.79933840733178    1.00644076948977
H        -1.86153936464421   -0.53660316684070   -0.58267583704892
H        -0.41334605486774    1.49588213180927    1.28882971626518
H         0.24493224248699   -0.83389509719690    1.19975434275687
H         1.38627662392401   -0.35854039382925   -0.74957459081081
H         0.32690659212926    0.81313030521456   -1.20539015762745
C         0.58885172839619   -3.08584739939740   -1.04700160965744
N         1.54670295631727   -2.56831434346271   -1.38085855376533
H        -0.30272412334055   -3.55848565572651   -0.73223644626643
12
Properties=species:S:1:pos:R:3 energy:=T -21.238566462410=T gnorm:=T 0.000545356516=T xtb:=T 6.2.3=T (830e466)=T pbc="F F F"
C        0.25765139       0.18856653       0.53124072
N        1.31495992       0.55374840      -0.33541586
O       -0.14340604      -1.19215928       0.45706232
O       -0.81018250       1.02138203       0.25753837
H       -0.99662624      -3.44637947      -0.22042531
H       -1.54884296       0.80112774       0.83576191
H        0.58785792       0.26426267       1.58290439
H        2.08250863      -0.10227678      -0.27197615
H        0.97103571       0.58643515      -1.28832838
C       -0.73539651      -2.76700642      -1.02709179
N       -0.29878148      -1.60173209      -0.86332229
H       -0.84757785      -3.09516848      -2.04623793
