9
 energy: -16.129304626790 gnorm: 0.000377622190 xtb: 6.2.3 (830e466)
C        -4.55059615689276    3.06591921127900   -0.45827084056120
O        -4.08671024265674    2.62579755227193   -1.62899644299772
N        -4.06033365821273    2.61364414971609    0.60345334971872
H        -4.53071834759187    3.03638572796615   -2.37866296720521
H        -4.44973622093208    2.98369182706593    1.46117888642724
H        -5.35457096264605    3.81921788791792   -0.52180420204550
C        -1.78298065324745    0.51915115108847    0.10895902609414
N        -0.95008265787824   -0.24087810843408   -0.05934870263011
H        -2.56038109994231    1.22816060112923    0.26469189319850
9
Properties=species:S:1:pos:R:3 energy:=T -16.139823266710=T gnorm:=T 0.000664184266=T xtb:=T 6.2.3=T (830e466)=T pbc="F F F"
C       -3.98650096       2.60672168      -0.97894474
O       -3.97252796       2.46848238      -2.30495378
N       -3.24399101       1.97660971      -0.18017699
H       -4.61207327       3.03109094      -2.75796770
H       -4.10801056       2.50868521       2.94734292
H       -4.68887619       3.31589416      -0.54384109
C       -2.33042342       1.08049338      -0.45807618
N       -1.50538451       0.28613375      -0.54719253
H       -3.87832212       2.37697878       2.21501010
