10
 energy: -13.520298598838 gnorm: 0.000684850192 xtb: 6.2.3 (830e466)
C        -2.08682782536349   -0.31897972510800    0.23380903854953
C        -1.91783777295355    0.84896577619146   -0.72794712258346
C        -0.89119598134530   -1.22580882608167    0.26355591229534
O         0.11057603282551   -1.09051232005937   -0.37806251543556
H        -1.01063725575911   -2.07906372984559    0.96482791684912
H        -2.95437607771776   -0.92734940720471   -0.03802710377363
H        -2.25596479280476    0.03602151843865    1.25461145122910
H        -1.05473856831957    1.44577259397319   -0.44310840598734
H        -2.80169148479310    1.48197775242760   -0.72217491379105
H        -1.75431627376887    0.48078636726845   -1.73787425735205
10
Properties=species:S:1:pos:R:3 energy:=T -13.533578975336=T gnorm:=T 0.000258823167=T xtb:=T 6.2.3=T (830e466)=T pbc="F F F"
C       -2.04603804      -1.01304975       0.72923872
C       -1.57956681       0.86387000      -0.92183586
C       -1.08200978      -0.39592013      -0.25160731
O        0.00135340      -0.86558220      -0.48682777
H       -1.62040054      -1.91111943       1.16868894
H       -2.97415893      -1.26090499       0.21786680
H       -2.27373444      -0.29457218       1.51427814
H       -0.88554575       1.67566137      -0.71152437
H       -2.57516068       1.13830517      -0.58851297
H       -1.58174843       0.71512215      -2.00015433
