12
 energy: -21.568764107836 gnorm: 0.000907133531 xtb: 6.2.3 (830e466)
C         1.29095006733479    1.55110912190655   -2.19843393415731
C         0.42242552529621    0.67602459974315   -1.29391185014258
C         1.10350904026206   -0.59690903195960   -0.89875936570342
O         0.66309554366588    2.75418594076448   -2.55629516528137
O         0.51388716939587    3.58460578587598   -1.40505206681680
O         2.20604007913875   -0.93217648050900   -1.22719936816518
H         0.71774582504898    4.46514991858865   -1.74823160889906
H         2.25443413420058    1.74548410735054   -1.71098098727132
H         1.46920496171209    1.06350911044935   -3.15965648746869
H         0.48016772114706   -1.23930728154386   -0.24512022100803
H        -0.52082353938630    0.43260604600646   -1.78989569634011
H         0.17036347218403    1.23330816332729   -0.38698324874615
12
Properties=species:S:1:pos:R:3 6.2.3=T gnorm:=T pbc="F F F" 0.000633189883=T energy:=T xtb:=T 830e466=T -21.508727107314=T
C       1.14527358       1.50109969      -2.01359584 
C       0.05794736       0.84249783      -1.17310913 
C       1.92666598      -1.72602805      -0.82664780 
O       0.77004895       2.75188515      -2.53225284 
O       0.67346796       3.70047335      -1.46469052 
O       2.84561447      -1.43697697      -1.41546844 
H       0.54469253       4.52749832      -1.94631138 
H       2.06905367       1.60625571      -1.42986716 
H       1.35192247       0.92276065      -2.91855338 
H       0.39526198      -0.13811770      -0.83652432 
H      -0.85079438       0.72581520      -1.75812365 
H      -0.15815458       1.46042681      -0.30537554 
