12
 energy: -21.564973475784 gnorm: 0.000908053478 xtb: 6.2.3 (830e466)
C         1.21292991805878    1.49869784938279   -2.23512729729929
C         0.66349769186200    0.13831494313553   -1.82069736686045
C         1.14373528050776   -0.28414871749291   -0.45808440385814
O         0.43955969858517    2.45566765441618   -1.53741917509567
O         1.00318159522912    3.74221388456233   -1.67440613792646
O         2.00148384711389    0.25507787859372    0.17789376012761
H         1.36781821944866    3.93610917766802   -0.79865055602911
H         2.26837877601041    1.58450247262405   -1.94661717297406
H         1.11972345262241    1.65369897469882   -3.31711976870987
H         0.62602703385347   -1.18612024667760   -0.07669221225080
H         0.96995776521039   -0.62787506144129   -2.53568683725831
H        -0.42728327850188    0.17358119053037   -1.81298283186544
12
Properties=species:S:1:pos:R:3 6.2.3=T gnorm:=T pbc="F F F" -21.526365783594=T energy:=T 0.000614982549=T 830e466=T xtb:=T
C       1.48203598       0.75163144      -2.85911998 
C       1.30425490      -0.41675749      -2.24612502 
C       0.94670120      -0.51540983      -0.83093454 
O       0.13811624       3.17468787      -0.16285063 
O       1.03163856       3.58165507      -1.19273230 
O       0.70800077       0.41138006      -0.09322430 
H       0.99112430       4.54293549      -1.12414012 
H       1.37044468       1.68573215      -2.33159684 
H       1.74937372       0.81098493      -3.90076375 
H       0.90468839      -1.55190638      -0.44819230 
H       1.42538245      -1.35509168      -2.76956989 
H       0.33724882       2.21987838      -0.07634033 
