12
 energy: -21.568774819193 gnorm: 0.000923158299 xtb: 6.2.3 (830e466)
C         1.41337488159875    1.45113244201118   -2.14208892721842
C         0.59070093896841    0.55469709297093   -1.21535148618842
C         1.28959745353217   -0.72807826727694   -0.89032608594323
O         0.74494158796385    2.63374047927218   -2.49153538642451
O         0.60704599689787    3.46780780210280   -1.34084335772145
O         2.36997402001285   -1.05736898830866   -1.29119715097117
H         0.69731579210854    4.35596002074393   -1.71015994783946
H         2.38173438875253    1.67539755494634   -1.67797024136835
H         1.58371093883766    0.96207527972488   -3.10428885742674
H         0.70350265061990   -1.38627422140357   -0.21756785928784
H        -0.37559086123875    0.32315944533826   -1.67151608337028
H         0.38268221194621    1.08735135987868   -0.28298461624015
12
Properties=species:S:1:pos:R:3 6.2.3=T gnorm:=T pbc="F F F" 0.000287655071=T energy:=T -21.638945464986=T 830e466=T xtb:=T
C       1.65651745       2.11007070      -2.20708754 
C       0.22622451       0.51023278      -1.22361288 
C       1.16307200      -0.62165047      -0.87447001 
O       0.58064171       1.22751110      -2.38344661 
O       1.32601859       3.19361876      -1.39494368 
O       2.17623377      -0.90297206      -1.44331774 
H       0.61270228       3.69400769      -1.81047719 
H       2.51117713       1.62149159      -1.72650962 
H       1.93197498       2.42566654      -3.22174745 
H       0.80967636      -1.19298095       0.00917669 
H      -0.76935642       0.09462009      -1.40794609 
H       0.16410764       1.17998421      -0.35144786 
