12
 energy: -21.565749658919 gnorm: 0.000504784659 xtb: 6.2.3 (830e466)
C         1.39593447996438    1.48108742166758   -1.78906106238595
C         0.45571969804819    0.53256918125448   -1.05551651781842
C         1.05629655860930   -0.82717260629537   -0.85356611721046
O         0.71590047375787    2.71088815401467   -1.89621260826259
O         1.56363273096740    3.64361668965515   -2.56694819094697
O         2.14657707739745   -1.17088706267685   -1.20634839963163
H         0.99230129427140    4.41927502269181   -2.63939966268642
H         2.32966761755514    1.61085669258407   -1.22866590954997
H         1.63940600797161    1.09294152589909   -2.78561674240276
H         0.37634265847524   -1.52344291384238   -0.32337321347462
H        -0.47802822746230    0.42293985452218   -1.61288888553314
H         0.19524963044431    0.94681804052559   -0.07819269009710
12
Properties=species:S:1:pos:R:3 6.2.3=T gnorm:=T pbc="F F F" energy:=T 0.000773344585=T 830e466=T xtb:=T -21.613416060262=T
C       1.05509369       1.21005229      -1.44159416 
C       0.32150641       0.16504092      -0.64337489 
C       1.03103222      -1.16628114      -0.73824001 
O       0.52329615       1.98101149      -2.18915698 
O       2.06516677       4.28836252      -3.11244362 
O       2.20232663      -1.32257464      -0.56102709 
H       1.51112901       4.87895844      -3.62659173 
H       2.14575851       1.20115532      -1.28400270 
H       1.51654131       3.52617396      -2.88859587 
H       0.36561312      -2.00902027      -0.99915905 
H      -0.72102320       0.10019402      -0.95321797 
H       0.37255938       0.48641708       0.40161408 
