12
 energy: -21.564971635205 gnorm: 0.000417902180 xtb: 6.2.3 (830e466)
C         0.46934761252839    1.72682611834205   -1.30506526266724
C         0.41706821332144    0.21401274170235   -1.48755478447682
C         1.73859898730938   -0.44496260508955   -1.19604323996081
O         1.10522177571712    2.23358292154058   -2.46262986431981
O         1.46410453933023    3.58570181265699   -2.28182049042572
O         2.69908342457839    0.09375992129878   -0.72900885336089
H         2.42517167544927    3.56291082728892   -2.15782892278522
H         1.05644179438089    1.97968265173795   -0.41292659407345
H        -0.53711524297695    2.15240385717083   -1.20784214044037
H         1.75070043179766   -1.52284291325592   -1.45167301698915
H         0.13359782775885   -0.01649422650372   -2.51646471971029
H        -0.33332103919457   -0.22498110688917   -0.82694211079032
12
Properties=species:S:1:pos:R:3 6.2.3=T gnorm:=T pbc="F F F" 0.000435896686=T energy:=T -21.510061298070=T xtb:=T 830e466=T
C       1.68633741       1.38514780      -1.48349813 
C       1.22135865       0.13037351      -1.39830446 
C       2.12480823      -0.95013687      -1.04249676 
O       0.89950609       2.41365908      -1.80272857 
O       1.61570706       3.63990808      -1.82619577 
O       3.30482315      -0.83402297      -0.81504097 
H       0.93932586       4.28352227      -2.08091807 
H       2.72981512       1.60892210      -1.29227348 
H      -2.36327363       1.82485064      -1.87364016 
H       1.63178832      -1.93892146      -0.98943911 
H       0.18514434      -0.09888916      -1.58640490 
H      -1.58644061       1.87518697      -1.84485964 
