12
 energy: -21.566652975704 gnorm: 0.000940293243 xtb: 6.2.3 (830e466)
C         1.60232154476164    1.63780752652959   -2.17928065236995
C         1.61019107858881    0.20343824400631   -1.62212921681753
C         0.95248501202346    0.13583203215014   -0.26932517883824
O         0.35437640477520    2.07210176483420   -2.64509165315247
O        -0.51085594606689    2.39673864553271   -1.56046222371447
O         1.52230265134069   -0.14284570140052    0.74753342821159
H        -0.94410907409624    3.20790129852182   -1.85965695856129
H         2.22162933840358    1.68137609628999   -3.07997672947287
H         1.99957748006270    2.33586354395622   -1.43217538350231
H        -0.12232623607844    0.38659232630774   -0.27967666644034
H         1.06018951098562   -0.43806353912875   -2.31317558762779
H         2.64319823529993   -0.13703223759938   -1.54238317771444
12
Properties=species:S:1:pos:R:3 6.2.3=T gnorm:=T 0.000918873927=T pbc="F F F" energy:=T xtb:=T -21.566435269459=T 830e466=T
C       1.89484964       0.90797219      -2.45805744 
C       1.12106584       1.18147296      -1.16596453 
C       0.97238612      -0.07334178      -0.33245621 
O      -0.18286724       1.66762941      -1.39126976 
O      -0.10441273       3.03343379      -1.80247226 
O       1.86470227      -0.82951824      -0.08373672 
H      -1.02950021       3.24209334      -1.98231721 
H       2.85070364       0.45632420      -2.21049616 
H       2.05773561       1.83868331      -2.99473129 
H      -0.05816938      -0.22936211       0.03510754 
H       1.32796004       0.22733118      -3.08917449 
H       1.67452640       1.91699176      -0.56023147 
