12
 energy: -21.558973909322 gnorm: 0.000577391257 xtb: 6.2.3 (830e466)
C         1.73423078106003    1.76619329885879   -1.49255703137352
C         0.31238156242604   -0.11763194526970   -1.63809438607546
C         0.44814445949005   -0.50616484796644   -0.38136205739258
O         2.28131839281549    2.74192872488118   -2.30088521966261
O         0.88682289170137    0.94160850109452   -2.26004480069356
O         1.31258092276710    3.71175940917745   -2.64870679529554
H         0.96278844575589    3.41308998343778   -3.50286783148610
H         1.17427670401239    2.20401927639566   -0.64961545970023
H         2.60341321474063    1.20454611525802   -1.12142361090058
H        -0.31538103097023   -0.64610531845600   -2.34213183656361
H        -0.07822082825282   -1.37474981618089   -0.03396945972140
H         1.06704448445395    0.00141661876967    0.33565848886525
12
Properties=species:S:1:pos:R:3 energy:=T -21.478895020088=T gnorm:=T 0.000616438682=T xtb:=T 6.2.3=T (830e466)=T pbc="F F F"
C        1.43503758       1.11449369      -1.58829198
C        0.74292105      -0.17373272      -1.26994118
C        0.27075648      -0.48397102      -0.07853952
O        1.62144387       2.61731568      -3.37218489
O        0.90317007       1.55975301      -2.83217013
O        1.11778493       3.84685129      -2.93319349
H        1.71822154       4.14753281      -2.23213236
H        1.25984581       1.85856079      -0.79942436
H        2.51710855       0.94458022      -1.69288240
H        0.65670681      -0.84866405      -2.10837988
H       -0.20119100      -1.43189441       0.11134408
H        0.34759433       0.18908471       0.75979611
