12
 energy: -21.516321264437 gnorm: 0.000901132358 xtb: 6.2.3 (830e466)
C        -0.09354985708795    1.43542947112519   -1.98781482574156
C        -0.91647707068522    0.59024328170150   -1.39539611083735
C         2.70272811719763    0.44029081360447   -0.93568023362336
O         0.97688079618149    1.96348691967885   -1.31631340048486
O         1.68191603632615    2.88551350595237   -2.10619519346442
O         3.45779399920476    0.97937213738263   -1.70397654438360
H         2.58318697361612    2.49847202997261   -2.18216199295130
H         2.65857663429334    0.70387894936938    0.13066156226110
H        -0.19939471990716    1.77461606910485   -3.00929880678428
H         2.07110880777977   -0.41155221869095   -1.23047240293914
H        -1.75826304567504    0.18984466882581   -1.92671447463507
H        -0.77510667124299    0.29048437197336   -0.37243757641542
12
Properties=species:S:1:pos:R:3 6.2.3=T gnorm:=T pbc="F F F" energy:=T 0.000345249934=T xtb:=T 830e466=T -21.484530468337=T
C       0.42618703       0.46881287      -1.89043726 
C      -0.71518238       0.58525599      -1.23995012 
C       1.74998534       0.26115081      -1.21792128 
O       2.44800062       2.48999713      -1.06795566 
O       1.62448193       3.22444871      -1.91985721 
O       2.72065904       1.23027042      -1.59992961 
H       2.22042561       3.68384893      -2.53429724 
H       1.64103279       0.25230061      -0.12796122 
H       0.46955554       0.54946348      -2.96790367 
H       2.21523002      -0.67207893      -1.55071209 
H      -1.64718801       0.74283808      -1.75388921 
H      -0.76378751       0.52377189      -0.16498541 
