12
 energy: -21.614998338582 gnorm: 0.000732111733 xtb: 6.2.3 (830e466)
C         0.39883762237642    0.75359905635178   -2.96004198351964
C         0.35186546160580    0.61857096043834   -1.46409720609990
C         1.28438044245270   -0.44324229489434   -0.95945132859463
O        -0.54483427682158    1.00213286179218   -3.65338163118908
O         1.79318408549719    3.22416228913337   -0.56714198598314
O         2.35697457906652   -0.70044393462826   -1.42748669591522
H         1.63573716418424    4.12239675174105   -0.86760607339759
H         2.74380020612128    3.10367511434061   -0.50755730494552
H         1.41029127657431    0.60019268724441   -3.37705079822157
H         0.89839762336259   -0.99170809562507   -0.07879412811412
H        -0.66850676247593    0.47759947777963   -1.10926171814474
H         0.72886257805425    1.57265512632690   -1.06391914587582
12
Properties=species:S:1:pos:R:3 6.2.3=T gnorm:=T pbc="F F F" energy:=T 0.000467490627=T -21.624639910223=T 830e466=T xtb:=T
C       0.64074253       1.53165287      -1.47164266 
C       0.35612087       0.39520753      -0.51553165 
C       1.01466807      -0.87055796      -1.01394943 
O       0.41893534       1.50726805      -2.65028926 
O       1.19172881       2.57104209      -0.84747780 
O       1.65473211      -1.61523431      -0.33463322 
H       2.17419870       3.09792018      -3.88784756 
H       1.39605413       3.28514383      -1.47359182 
H       2.72581055       3.62319379      -3.72165892 
H       0.84610214      -1.04547345      -2.09171733 
H      -0.72184292       0.21440104      -0.51778834 
H       0.69173966       0.64502634       0.49033798 
