10
 energy: -20.528263868714 gnorm: 0.000753470904 xtb: 6.2.3 (830e466)
C         1.39889458388473    2.06647684518501   -1.30137431017526
C         0.74866046371841    0.99952357404504   -0.82906793936651
C         1.44907703034614   -0.22282888181333   -0.48417076670905
O         0.90246900793522    3.25170756520710   -1.66039630458062
O        -0.50603662153045    3.34957543540144   -1.50276165193983
O         0.93295646220646   -1.22304940523426   -0.05318894182932
H        -0.68907031137882    4.24237262746932   -1.82971192114426
H         2.47137560896773    2.09413288048853   -1.45536443991562
H         2.54457800254361   -0.17297832788122   -0.65140941608795
H        -0.32159422669304    1.02275768713237   -0.69145430825159
10
Properties=species:S:1:pos:R:3 6.2.3=T gnorm:=T -20.529546764426=T pbc="F F F" 0.000799223319=T energy:=T xtb:=T 830e466=T
C       1.62548806       1.84504181      -1.04974604 
C       0.79358439       0.75385316      -0.41738693 
C       0.78165952      -0.46655762      -0.84489459 
O       0.92133091       2.60968559      -1.99402218 
O      -0.06716688       3.39759607      -1.32481675 
O       0.81336577      -1.57335564      -1.19770072 
H      -0.49169569       3.85376663      -2.06220215 
H       2.44479937       1.42629733      -1.63762665 
H       2.02200669       2.50046437      -0.26511758 
H       0.08793788       1.06089832       0.33461357 
