12
 energy: -21.513827044594 gnorm: 0.000784657384 xtb: 6.2.3 (830e466)
C         0.35936058290384    1.17797477457224   -2.42571659044088
C        -0.85999888219766    1.01725759424594   -1.95307446218933
C         2.89248206999836    0.10853787322760   -0.80139591226704
O         1.35831289359224    1.96126129000538   -1.92882431076028
O         1.02541890746168    2.63212795844389   -0.72662150527961
O         2.71571821312225   -0.77622376084930   -1.58455730291448
H         0.91378948706753    3.55725971232560   -0.99174826073569
H         3.70807381102589    0.84191571693591   -0.90605760420585
H         0.75521942137313    0.68840246687584   -3.30411561492552
H         2.26305196078084    0.25068851336542    0.09157278552680
H        -1.55281820285987    0.36503819382082   -2.44651105646397
H        -1.18951026226899    1.51583966703216   -1.05864016534345
12
Properties=species:S:1:pos:R:3 6.2.3=T gnorm:=T pbc="F F F" energy:=T 0.000794691420=T xtb:=T 830e466=T -21.559930219125=T
C       0.58539117       0.34338934      -2.59518686 
C      -0.48803784       0.66852254      -1.89700684 
C       2.26282464       0.84534574      -0.96272434 
O       2.41273750       2.22169694      -0.81126439 
O       1.18585290       2.86346264      -0.48931042 
O       1.90380686       0.43651157      -2.25009544 
H       1.06720158       3.51278110      -1.19784567 
H       3.27723975       0.46416286      -0.80287037 
H       0.52156852      -0.07276408      -3.59156829 
H       1.57602313       0.44224503      -0.20527872 
H      -1.46261019       0.51155852      -2.31851465 
H      -0.45289803       1.10316781      -0.91402401 
