12
 energy: -21.513239868898 gnorm: 0.000627148312 xtb: 6.2.3 (830e466)
C         1.45196085740059    1.92802193036684   -1.64603178366057
C         0.87935399327526    1.26933612528733   -0.63099346027280
C         0.98461494901448   -0.17657570334543   -0.55194030856593
O         1.46955005425892    3.23271614478886   -1.89636349130137
O         0.77230861011894    4.01092550201268   -0.92979321398528
O         1.56426194361716   -0.88147122728991   -1.34400413996849
H         0.88592786404685    4.91069651714415   -1.26857505112740
H         0.94214986198683   -1.70581132721801   -3.55281767726631
H         2.00063177063769    1.41209454450411   -2.42579889692441
H         0.47583494989019   -0.61398245320155    0.32734565852549
H         0.62674469037914   -1.84264776583925   -4.25232700729155
H         0.33595045537404    1.79669771279283    0.13559937183869
12
Properties=species:S:1:pos:R:3 6.2.3=T gnorm:=T -21.516458645518=T pbc="F F F" energy:=T 0.000603474532=T 830e466=T xtb:=T
C       1.02345284       1.65164721      -2.62565173 
C      -0.11886237       1.10005564      -2.24229964 
C       1.67439137      -0.23196872      -0.62632684 
O       1.72640114       2.63004178      -2.01845240 
O       1.12622329       3.13597666      -0.84447740 
O       2.08293550       0.65654106       0.06675410 
H       1.55409691       2.63642998      -0.12625969 
H       2.25861121      -0.64685827      -1.46222167 
H       1.57226413       1.36220625      -3.51237866 
H       0.71216052      -0.73387439      -0.44168794 
H      -0.57462223       0.32479055      -2.82717289 
H      -0.64776232       1.45501226      -1.37552523 
