9
 energy: -16.536965645708 gnorm: 0.000735211923 xtb: 6.2.3 (830e466)
C         0.96465053526811    1.18381644178920   -2.46093808603615
C         0.15331714716242    0.25579740884280   -1.58232630328268
C         1.08561595046501   -0.77338097253321   -0.99040725729821
O         1.02102928836105    2.36817427542529   -2.32032386985928
O         1.69029840665475   -1.58242792731750   -1.63116947948269
H         1.52295418901303    0.65002633267178   -3.24963593118951
H         1.19136997758352   -0.70636810885466    0.10715545304672
H        -0.55451814513403   -0.25744279208770   -2.23724575124668
H        -0.37200734937391    0.82091534206393   -0.81469877465151
9
Properties=species:S:1:pos:R:3 0.000223938169=T 6.2.3=T gnorm:=T -16.543002666531=T pbc="F F F" energy:=T xtb:=T 830e466=T
C       0.87146476       0.95694206      -2.29147429 
C       0.46941405       0.06537768      -1.37314893 
C       1.23712152      -1.14009521      -1.12163571 
O       0.26388353       2.09333648      -2.61773934 
O       2.26186088      -1.45156331      -1.67998925 
H       1.77674828       0.78838793      -2.86031894 
H       0.79810841      -1.79181285      -0.34096734 
H      -0.43339245       0.21901187      -0.79821582 
H      -0.54249897       2.21952536      -2.09610038 
