12
 energy: -21.559931522708 gnorm: 0.000579449527 xtb: 6.2.3 (830e466)
C         2.32106076917458    1.24769730165442   -1.94176952788695
C         0.44859676556085   -0.17016048510253   -1.48021606486330
C        -0.07540840742101    0.49869791638823   -0.46870645031438
O         1.91825790126512    2.43283972355822   -2.55201341032489
O         1.53381486014209    0.13520556319063   -2.25119565840567
O         0.93324898559202    3.12053550157537   -1.79220173197587
H         0.18426716467459    3.20339038160034   -2.39886422082878
H         2.41868110914443    1.38190693862135   -0.85528599286735
H         3.29979141378128    1.05426524984117   -2.39433072333730
H         0.03972400433657   -1.11050682145184   -1.82444786442086
H         0.29788358358587    1.44508073811600   -0.12056183857446
H        -0.93062814983644    0.10093799200861    0.04368348379985
12
Properties=species:S:1:pos:R:3 energy:=T -21.496713777172=T gnorm:=T 0.000625613388=T xtb:=T 6.2.3=T (830e466)=T pbc="F F F"
C        2.72872957       1.52442602      -2.01506909
C       -0.51937927      -0.25109880      -1.37910737
C       -1.43098967       0.40843576      -0.97456865
O        1.49324099       1.95143250      -2.50490337
O        2.63688917       0.47650435      -1.10775863
O        0.77756000       2.63538989      -1.48161845
H       -0.05049114       2.12420313      -1.41797436
H        3.27960163       2.37748279      -1.58640113
H        3.24292704       1.14548215      -2.90219768
H        0.30724720      -0.79753553      -1.72973402
H        2.17932361       0.78992159      -0.31638954
H       -2.25536913       0.95524616      -0.62018771
