12
 energy: -21.564902113522 gnorm: 0.000585828398 xtb: 6.2.3 (830e466)
C         0.33601222343232    1.71372374046653   -2.25912748945670
C         0.00730929016069    0.66157026856938   -1.23033652764346
C         0.88295399347908   -0.19893110884599   -0.71708681469285
O         1.07245302064001    2.82402445769979   -1.77902625576525
O         2.45336627633045    2.46969255326292   -1.64533170650961
O         2.19995432690356   -0.26963685519784   -0.97365341103640
H         2.77670716785111    3.12586463917661   -1.01548910503168
H         0.87081809324468    1.27924095180888   -3.11574029906205
H        -0.58160264702999    2.18209365009538   -2.62055243931988
H         0.57541702656358   -0.95730776745171   -0.00999840997494
H         2.47000218396152    0.50426313220290   -1.49685502764816
H        -1.01488095553679    0.61660233821307   -0.89700251385895
12
Properties=species:S:1:pos:R:3 6.2.3=T gnorm:=T 0.000693913337=T pbc="F F F" energy:=T xtb:=T -21.493483594296=T 830e466=T
C       0.96408733       1.47255884      -2.03449102 
C       0.68531132       0.64250684      -0.77387906 
C       0.75759401      -0.84663794      -0.86007042 
O       0.75424592       2.84893682      -1.84005357 
O       1.71506025       3.34783107      -0.90522165 
O       1.04428220      -1.38241341      -1.98471658 
H       1.60483024       4.30255281      -0.99710619 
H       1.99286770       1.30778792      -2.39233271 
H       0.24716043       1.24518827      -2.83313374 
H      -0.31198763       0.87745846      -0.38941075 
H       1.21270328      -0.80400545      -2.76533103 
H       1.38235495       0.93943577       0.01554672 
