12
 energy: -21.513389464066 gnorm: 0.000342539726 xtb: 6.2.3 (830e466)
C         0.49471623147590    1.42716144585728   -2.62466463578905
C        -0.21814073364022    0.60426375600309   -1.87925339424557
C         2.41991679722128    0.00699718659843   -0.65366281475582
O         1.03807081251821    2.62059735785491   -2.27535093870997
O         0.81549330391501    2.96421212835843   -0.91161581061394
O         2.23855379527176   -1.16802837890130   -0.53931323834670
H         0.83770262682522    3.93042513750070   -0.93671965998950
H         2.97424090317524    0.44181917518786   -1.50206800010064
H         0.75914471792147    1.25382713588503   -3.65876285307771
H         2.06829411244385    0.74335762325306    0.08525578514770
H        -0.58270515482726   -0.31987520428665   -2.28225750116183
H        -0.45608741229797    0.83524263669724   -0.85720693836465
12
Properties=species:S:1:pos:R:3 830e466=T 6.2.3=T gnorm:=T pbc="F F F" energy:=T xtb:=T -21.533010043922=T 0.000808624289=T
C       0.49060715       0.74454390      -3.24444404 
C      -0.53121021       0.68441401      -2.41634527 
C       2.51540106       0.70258946      -0.02254690 
O       2.38157987       1.89892756      -0.60657847 
O       1.27997625       2.62610213      -0.10548100 
O       3.39581576      -0.03594647      -0.31807326 
H       1.20465004       3.36125572      -0.73306187 
H       1.27464731       1.47757945      -3.14536882 
H       0.59852073       0.05503244      -4.06523992 
H       1.73360983       0.51539786       0.73528249 
H      -1.30638086      -0.05640068      -2.52424994 
H      -0.64801694       1.36650462      -1.58951300 
