12
 energy: -21.615011657213 gnorm: 0.000833573389 xtb: 6.2.3 (830e466)
C        -0.15744105551828    0.27870479729086   -2.97518055218063
C         0.67410421340389    1.12035976969243   -2.05516513810313
C         2.07105544112383    0.61616244578911   -1.85522352049856
O        -0.94780404511825    0.70201963965282   -3.76648754153813
O         1.20940079475325    2.28339682208047    0.73830875355736
O         2.95641072474242    1.25822778692073   -1.36180267667570
H         2.01295827369817    2.23834234289607    0.20599319513666
H         1.42690005614493    2.79694257912379    1.51874085343387
H         0.01570846284169   -0.81039983859841   -2.85813713117598
H         2.24160656431206   -0.42423978758171   -2.18912028899017
H         0.20413218657781    1.11485179612276   -1.06195174683774
H         0.68226838303752    2.16545164661121   -2.37557420612698
12
Properties=species:S:1:pos:R:3 0.000538677478=T 6.2.3=T gnorm:=T pbc="F F F" -21.648062016117=T energy:=T xtb:=T 830e466=T
C       0.25155934       0.57184656      -2.93157884 
C       0.26109259       1.10418520      -1.52752851 
C       1.64483629       0.89205642      -0.86959933 
O       0.00624452       1.22074450      -3.90710018 
O       1.64013816       1.34265758       0.44941598 
O       2.66161387       1.46008996      -1.62867980 
H       2.46611699       2.38793165      -1.81613345 
H       1.53708140       2.30311207       0.47291100 
H       0.50879433      -0.50139890      -2.99740046 
H       1.88097880      -0.17584494      -0.80989541 
H      -0.48003246       0.56507441      -0.93488141 
H       0.01087618       2.16936551      -1.53512960 
