10
 energy: -15.383371240882 gnorm: 0.000712798969 xtb: 6.2.3 (830e466)
C         0.81884549033202    1.48878837375515   -1.77939582187030
C        -0.38747031754906    0.85445659005963   -1.10671798082783
O         0.65945323284444    2.88483756685986   -1.65595823857303
O         1.80724837349531    3.53651305309224   -2.19845136688243
H         1.45772054925604    4.40718221384251   -2.42751545135037
H         1.75125282819021    1.18002066714174   -1.29063945188484
H         0.87005336795836    1.21204870411417   -2.84129657141406
H        -0.31633555513909   -0.22643485837125   -1.17818529517670
H        -1.30201090368611    1.18668492681165   -1.59053983868674
H        -0.42326706570211    1.14400276269430   -0.06048998333370
10
Properties=species:S:1:pos:R:3 6.2.3=T gnorm:=T pbc="F F F" energy:=T 0.000683050262=T xtb:=T 830e466=T -15.434441153254=T
C       0.37023188       1.35462530      -1.38887314 
C      -0.66125162       0.42879222      -0.84112587 
O       0.14667551       2.31426246      -2.07672179 
O       2.48598589       3.85358397      -2.79953345 
H       2.22479663       4.68398396      -3.20221782 
H       1.40726003       1.09144683      -1.10899628 
H       1.66691623       3.37254728      -2.61653932 
H      -0.46221407      -0.57894135      -1.20199857 
H      -1.65961583       0.73915622      -1.13775199 
H      -0.58329465       0.40864312       0.24456822 
