12
 energy: -21.514431564715 gnorm: 0.000435251873 xtb: 6.2.3 (830e466)
C        -0.12939221287992    1.40737251980347   -2.65083044927192
C        -0.81191299677979    1.07954225367434   -1.57095883695489
C         2.69204395817868    0.17751874080981   -0.50814885489035
O         1.07671715453856    2.01929999670607   -2.72926211845647
O         1.63908443798200    2.32057084387582   -1.45502522560772
O         3.79329316872505    0.34897681193845   -0.94065188761556
H         2.49046403486624    2.70935086990298   -1.70259926095805
H         2.35663530553120    0.60192996364320    0.45161619301441
H        -0.45191669591977    1.22266604941078   -3.66623331423966
H         1.93846163342593   -0.44009360867342   -1.02315916875654
H        -1.76467758460065    0.59455378868327   -1.65344593430847
H        -0.43969020306810    1.29840177022476   -0.58711114195510
12
Properties=species:S:1:pos:R:3 6.2.3=T gnorm:=T pbc="F F F" -21.568047924858=T energy:=T xtb:=T 830e466=T 0.000885888870=T
C       1.11159518       0.87372619      -2.03891492 
C      -0.16126750       0.60996179      -1.22970199 
C       2.33473416       0.35122032      -1.30420955 
O       1.26760864       2.21715341      -2.42777763 
O       1.45915019       3.04526913      -1.27754483 
O       2.41874829      -0.74247831      -0.82610143 
H       1.12844123       3.89964697      -1.58313335 
H       3.15557464       1.08792665      -1.24573965 
H       1.05571763       0.35991772      -3.00797898 
H      -0.19067214      -0.43843180      -0.94957745 
H      -1.04124378       0.85784282      -1.81673598 
H      -0.14927653       1.21833510      -0.32839425 
