10
 energy: -20.524296319004 gnorm: 0.000867314997 xtb: 6.2.3 (830e466)
C         1.59281946742632    1.83774819452858   -1.88975117478712
C         1.70250814916756    0.94194051093349   -0.90228559684387
C         0.74472439197497    0.64985141682158    0.15618665957181
O         0.65065195836845    2.71758587478174   -2.23133865958903
O        -0.50729411927887    2.75504565193150   -1.40587735584385
O         0.93730660671778   -0.18329312634127    1.00922296271956
H        -1.03252746707716    3.45946565499138   -1.81482492351896
H         2.38050434474314    1.96095351095136   -2.62595766791607
H        -0.18399127326510    1.24183669350872    0.14076846849780
H         2.60649794122287    0.35077561789290   -0.87243271229019
10
Properties=species:S:1:pos:R:3 6.2.3=T gnorm:=T pbc="F F F" -20.499564974431=T 0.000417423602=T energy:=T xtb:=T 830e466=T
C       1.26766120       1.77543742      -2.22217803 
C       1.08572983       0.97247452      -1.21871662 
C       0.87795037       0.22947194      -0.16945835 
O       0.66505199       2.98178791      -2.44730962 
O      -0.19806725       3.35813652      -1.37886076 
O       1.58116755       0.26583757       0.99335652 
H      -0.65646688       4.12239217      -1.75260602 
H       1.92556420       1.58339839      -3.06101562 
H       0.12309814      -0.54593431      -0.14655238 
H       2.21951085       0.98890788       0.96705089 
