12
 energy: -21.510257029791 gnorm: 0.000871708746 xtb: 6.2.3 (830e466)
C         0.64391299550631    0.99967042092120   -2.35453263009747
C        -0.58343394656531    0.89138239719799   -1.45856449264202
C         2.97919858725349   -0.03835515530142   -0.36724583552276
O         1.21197897069283    2.28699480788837   -2.37527530960347
O         1.82139978178357    2.56540585511453   -1.11119338900475
O         3.94724208637167    0.54030057532869   -0.33843650537239
H         1.84897192470953    3.53041083921429   -1.10842690320778
H         1.40371787599416    0.26952056583088   -2.04231428886970
H         0.38646284257550    0.83812036200937   -3.40479308118226
H        -0.98638288860283   -0.11569927333431   -1.51271674670790
H        -1.34687124427215    1.59994249274837   -1.77286087346486
H        -0.30366698545141    1.10351611238289   -0.43023994432551
12
Properties=species:S:1:pos:R:3 6.2.3=T gnorm:=T pbc="F F F" energy:=T 0.000891730623=T xtb:=T 830e466=T -21.502587633480=T
C       0.88074760       0.79811739      -2.04663978 
C      -0.45665392       0.93527651      -1.32115585 
C       1.75636924      -0.22689644      -1.36148007 
O       1.52003697       2.05779623      -2.30640281 
O       1.73062473       2.80481935      -1.11273614 
O       2.93642443       0.16114108      -1.10218891 
H       1.10500334       3.53900376      -1.17703312 
H       3.16098954       1.09201790      -1.35596834 
H       0.71579379       0.42719096      -3.06657225 
H      -0.91344840      -0.04529283      -1.24576771 
H      -1.11897085       1.60647478      -1.86360619 
H      -0.29438647       1.32156131      -0.31704882 
