9
 energy: -16.535970313349 gnorm: 0.000465704777 xtb: 6.2.3 (830e466)
C         0.83047472562941    1.06532996008985   -2.67933275602978
C         0.35103727131011    0.43744895752367   -1.39256346429040
C         1.19569623889379   -0.71686860890279   -0.92750099177135
O         0.31040206367002    2.00566241351202   -3.20583675805522
O         2.17762820525835   -1.12772912663903   -1.47252255734835
H         1.72170271387670    0.57216819055273   -3.10613144439959
H         0.81951186520693   -1.17878695711053    0.00676278824342
H        -0.68259165839768    0.09940199181115   -1.51625156664508
H         0.32124857455238    1.19827317916294   -0.60612324970365
9
Properties=species:S:1:pos:R:3 gnorm:=T 6.2.3=T 0.000541552858=T -16.496427378380=T pbc="F F F" energy:=T xtb:=T 830e466=T
C       1.01854791       1.35873179      -2.96644021 
C       1.18019828       0.79863747      -1.63080296 
C       1.90158348      -0.25066896      -1.35426676 
O       0.35178878       2.32759425      -3.21444157 
O       2.54812930      -1.18034887      -1.13482240 
H       1.56661167       0.81314742      -3.75292829 
H      -0.91197806      -1.53135912       0.31777552 
H      -1.26395832      -1.28253593      -0.32933200 
H       0.65418696       1.30170196      -0.83424134 
