9
 energy: -16.536782416346 gnorm: 0.000753287384 xtb: 6.2.3 (830e466)
C         0.55527361413163    0.99768800324439   -2.82542091379583
C         0.26001305517298    0.69208365618895   -1.37639676606320
C         0.90285331214091   -0.59899366697395   -0.93565228284371
O        -0.23625696450505    1.46069974886157   -3.59156198002537
O         1.95864274758539   -1.00677318291903   -1.32172959581404
H         1.58724886335191    0.74146141322513   -3.12069191602109
H         0.30362493047331   -1.16143272739994   -0.19622835142601
H        -0.81399906710343    0.69617305270185   -1.18832656398122
H         0.71750950875233    1.49289370307104   -0.78599163002951
9
Properties=species:S:1:pos:R:3 0.000787104784=T 6.2.3=T gnorm:=T -16.482163889414=T pbc="F F F" energy:=T xtb:=T 830e466=T
C       0.33413260       0.62786319      -2.24276108 
C      -0.50040771       1.04408526      -1.07722270 
C       2.85061222      -1.13336558      -1.69212563 
O       0.12584963       0.88731029      -3.39168923 
O       3.27960130      -1.54046439      -2.65754920 
H       1.22352441       0.01815197      -1.94298636 
H      -0.84100028       0.15530775      -0.54915112 
H      -1.35242711       1.63608857      -1.40080516 
H       0.11502496       1.61882293      -0.38770952 
