9
 energy: -16.535970743984 gnorm: 0.000447400121 xtb: 6.2.3 (830e466)
C         0.83945739585226    1.08047978383174   -2.66980824281592
C         0.33998550753854    0.42686601487850   -1.40362751219144
C         1.20785607694519   -0.70180009864655   -0.91876311571783
O         0.28524252197317    1.98283197862021   -3.22704382500410
O         2.19941914870433   -1.10035714955506   -1.45540978134948
H         1.78253945318528    0.64769777908018   -3.04783008025235
H         0.83769856014449   -1.15891855312177    0.02024560289719
H        -0.67619848442535    0.05296330725637   -1.56422882886135
H         0.25649982008210    1.18042693765638   -0.61422421670471
9
Properties=species:S:1:pos:R:3 6.2.3=T gnorm:=T pbc="F F F" -16.496428059663=T 0.000909314296=T energy:=T xtb:=T 830e466=T
C       0.87215047       1.19864305      -3.10460496 
C       0.53792686       0.07054265      -2.24398409 
C       1.39631856      -0.82083077      -1.83584499 
O       0.07788380       2.01997847      -3.47845136 
O       2.17409796      -1.59935374      -1.48986522 
H       1.93599914       1.24348116      -3.39411420 
H       0.24999491      -0.21556757       1.42209450 
H      -0.49266094      -0.00648749      -1.93465266 
H       0.32078925       0.51978423       1.17873297 
