12
 energy: -21.561954639082 gnorm: 0.000674843942 xtb: 6.2.3 (830e466)
C         1.80998647973284    1.44018319693592   -2.36662530832957
C         1.03128727461714   -0.05307104252459   -0.70057328834426
C        -0.22417906986633   -0.10661862875506   -1.10734041392367
O         0.92050878245729    2.50235302358475   -2.20839063759372
O         2.04984579112310    0.70730598754829   -1.20279563310181
O         1.54138667785636    3.59680797351153   -1.56354197555968
H         1.24573835905860    3.54356881941893   -0.64240287879362
H         2.79115051801607    1.79988346605993   -2.69750097379064
H         1.34153134547426    0.81950604067925   -3.14317310660724
H         1.40588523865727   -0.63916758484899    0.12715578544968
H        -0.91676797500678   -0.76476916449126   -0.61785323456883
H        -0.60718342211978    0.49391791288127   -1.91275833483667
12
Properties=species:S:1:pos:R:3 energy:=T -21.518485813063=T gnorm:=T 0.000866567473=T xtb:=T 6.2.3=T (830e466)=T pbc="F F F"
C        2.26892085       1.73342196      -2.98903848
C        0.85203182       0.16754234      -0.73693318
C       -0.45727410       0.08869093      -0.60643659
O        1.47624455       2.63172260      -3.11271388
O        1.62529077       1.29551967      -0.76115140
O        0.90541638       2.48037494      -0.53894599
H        0.87440688       2.91687643      -1.41997376
H        3.29123003       1.89256746      -2.61801742
H        2.04832376       0.70645968      -3.31836823
H        1.51597799      -0.67892833      -0.84434942
H       -0.94898939      -0.86428444      -0.60026994
H       -1.06238953       0.96993674      -0.48960170
