10
 energy: -15.384854518772 gnorm: 0.000645826116 xtb: 6.2.3 (830e466)
C         1.04936035604649    1.42911745205937   -1.93605041181611
C        -0.16689795555070    0.86463062160688   -1.21158980692406
O         0.83762897912186    2.71000056568180   -2.47299619959915
O         0.71508941598944    3.66129883729307   -1.40994391205415
H         0.72566502094036    4.49781227036581   -1.89118436665903
H         1.91794659788323    1.44743066010917   -1.26537411713229
H         1.29056924987834    0.83817543240320   -2.82387424215127
H         0.04779012123854   -0.14238048727924   -0.86616965149057
H        -1.02408187477542    0.84023843531056   -1.87969297121153
H        -0.40654991077215    1.49156621244937   -0.35651432096184
10
Properties=species:S:1:pos:R:3 6.2.3=T gnorm:=T pbc="F F F" 0.000858242780=T energy:=T -15.458170386058=T xtb:=T 830e466=T
C       1.42098185       2.04068839      -2.03513425 
C      -0.51200545       0.96715842      -1.23590886 
O       0.20079114       1.44777809      -2.35821555 
O       1.28416359       3.25085940      -1.35732447 
H       0.74469601       3.84690646      -1.89082390 
H       2.01780233       1.39739865      -1.37238187 
H       1.94157812       2.17173599      -2.99491079 
H       0.03821057       0.15445923      -0.74791751 
H      -1.46179462       0.59546678      -1.61245746 
H      -0.68790354       1.76543859      -0.50831534 
