9
 energy: -16.536961665699 gnorm: 0.000642353794 xtb: 6.2.3 (830e466)
C         0.73979433160084    0.76636953866350   -2.79864673184136
C         0.61661137043354    0.71704541282942   -1.29318243268153
C         0.99163889748951   -0.68460483019277   -0.86041913406374
O        -0.08654472401548    0.35359947783482   -3.55747135075353
O         1.97638638916537   -0.96109936611047   -0.24450463372847
H         1.69391155034018    1.19448901461668   -3.15245024232789
H         0.26747958536371   -1.44833544387157   -1.19259563296459
H        -0.42547439089416    0.88393284357098   -1.01742377341727
H         1.27700699051663    1.44140335265965   -0.82039606822205
9
Properties=species:S:1:pos:R:3 6.2.3=T gnorm:=T -16.540429317308=T pbc="F F F" 0.000160804366=T energy:=T xtb:=T 830e466=T
C       0.59537180       0.96415584      -2.77334732 
C       0.07754672       0.09445962      -1.73849759 
C       0.79443912      -0.39796989      -0.71416356 
O      -0.04360872       1.40961416      -3.69492376 
O       2.08229312      -0.19844506      -0.44440726 
H       1.67626090       1.22173860      -2.67937640 
H       0.33843700      -1.04529769       0.02515761 
H      -0.96616517      -0.16498080      -1.81565292 
H       2.49623523       0.37952521      -1.10187880 
