9
 energy: -16.536944303826 gnorm: 0.000547897704 xtb: 6.2.3 (830e466)
C         0.62147433156816    1.16089054471118   -2.48013138200231
C         0.57454300163581    0.52028854864972   -1.10972562256978
C         1.09931612194405   -0.88935313997899   -1.27593921916573
O        -0.30932617501889    1.23167266904589   -3.22546098100055
O         2.23088915498897   -1.21725341928835   -1.07711032476634
H         1.62155719872137    1.54214734497090   -2.75107534010000
H         0.33503966155788   -1.60223282168986   -1.63288705116985
H        -0.45593021007457    0.48951985986461   -0.75783158182843
H         1.22204691467722    1.07041041371489   -0.42784849739704
9
Properties=species:S:1:pos:R:3 0.000527049265=T gnorm:=T pbc="F F F" energy:=T -16.498520846743=T xtb:=T 6.2.3=T 830e466=T
C       0.82368549       0.22746946      -3.64550477 
C       0.47806163       0.50672350       0.37533548 
C       1.10305839      -0.06187464      -0.59465507 
O       0.06707956       1.06818311      -3.25579268 
O       1.67756252      -0.57984138      -1.46504497 
H       1.87842334       0.43805064      -3.88541518 
H       0.51380120      -0.81394572      -3.83078596 
H      -0.36180495       0.03755649       0.84859437 
H       0.75974282       1.48376854       0.71525878 
