12
 energy: -21.561956079856 gnorm: 0.000537596722 xtb: 6.2.3 (830e466)
C         2.06533565156319    1.46662674134424   -2.02719568426694
C         0.44144200220387   -0.17239374043409   -1.48786378469759
C        -0.61822421150185    0.51996168958524   -1.86571612794976
O         1.57672113900153    2.56477759867186   -1.32180586137705
O         1.74788690123867    0.22759313937506   -1.46572280767873
O         2.34458802686415    2.81090007257813   -0.16046298312184
H         1.82654810326234    2.43219559853486    0.56627281024662
H         3.15976389944003    1.49238692115531   -2.08313038381914
H         1.62161579737825    1.58057566370671   -3.02631783278471
H         0.37948196547178   -1.19072798876371   -1.12955606700302
H        -0.56497058990900    1.54117020523894   -2.19719584666724
H        -1.59108868501289    0.06672409900742   -1.83720543088072
12
Properties=species:S:1:pos:R:3 energy:=T -21.635768459340=T gnorm:=T 0.000485410633=T xtb:=T 6.2.3=T (830e466)=T pbc="F F F"
C        2.01519272       0.91063068      -2.24711984
C        0.67493617      -0.79286034      -1.77652362
C       -0.02630817       0.31429316      -1.59169524
O        0.75105941       1.42722537      -1.87434509
O        1.95461692      -0.49710930      -2.18981507
O        1.13407547       3.59432535       0.07127078
H        0.94216830       2.90310305      -0.57300500
H        2.78773182       1.28243200      -1.55456480
H        2.25847109       1.23332394      -3.27256365
H        0.43173984      -1.82745283      -1.66704120
H        0.49679243       4.29446688      -0.08029921
H       -1.03137600       0.49741204      -1.28019807
