12
 energy: -21.562958070337 gnorm: 0.000659807475 xtb: 6.2.3 (830e466)
C         2.06770782166590    1.84385626274211   -1.65008635693105
C         1.42940721965335    0.49297721834028   -1.53727254069492
C         0.53947855429043    0.20053417805578   -0.59813882355180
O         1.46575545266521    2.65740430662511   -2.64237054809030
O         0.17594729331875    3.07374321645504   -2.21666464404316
O        -0.11045911180705   -0.97396380374344   -0.45602861584100
H        -0.40063247648557    2.81465603550966   -2.94741124286735
H         3.09900460751770    1.76816834535538   -2.00346592583935
H         2.04285031723369    2.36617624695735   -0.68754079933027
H         0.25970302113736    0.90310930519369    0.17442757024110
H         0.15079762578017   -1.58415752652035   -1.15800902985520
H         1.66973967503014   -0.22260378497064   -2.31303904319664
12
Properties=species:S:1:pos:R:3 6.2.3=T gnorm:=T -21.556764684109=T pbc="F F F" energy:=T 0.000817512270=T xtb:=T 830e466=T
C       2.96892050       1.32909565      -1.55962880 
C       1.98576638       0.59479918      -1.07806295 
C       0.52768450       0.96774887      -1.13814904 
O       0.38321767       2.04636570      -2.02791310 
O      -0.85098966       2.69793286      -1.83131030 
O      -0.27635120      -0.11522925      -1.52447094 
H      -1.50874026       2.12800076      -2.26304512 
H       3.99388577       1.00693016      -1.49339293 
H       2.77834472       2.27665756      -2.03159243 
H       0.16178104       1.25360696      -0.13996029 
H       0.06951544      -0.48521516      -2.34658859 
H       2.15626510      -0.36079330      -0.60148549 
