12
 energy: -21.564384478124 gnorm: 0.000342808532 xtb: 6.2.3 (830e466)
C         1.98023218375700    1.69302937880845   -1.93169853377867
C         1.70498142244295    0.78187266829520   -0.76336632367297
C         0.72919634139504   -0.11935305551222   -0.72265720662008
O         0.83931019195381    1.97782555190087   -2.72789334370186
O        -0.03040303356546    2.87751335234419   -2.06794597940804
O        -0.17713231613302   -0.36944047059196   -1.69268012779376
H        -0.70671849661544    2.31992009143306   -1.65195815924519
H         2.43136256054237    2.62868129152045   -1.58467691013940
H         2.66191844828534    1.22406409469171   -2.65163884472651
H         0.56527458720297   -0.74319056141145    0.14472041568106
H         0.02636666169005    0.18293952727123   -2.46654223787228
H         2.36480144904447    0.88584813125051    0.08052725127754
12
Properties=species:S:1:pos:R:3 -21.513466151170=T gnorm:=T 6.2.3=T pbc="F F F" energy:=T xtb:=T 830e466=T 0.000851658613=T
C       1.86622738       1.56415838      -1.93933768 
C       1.91346437       1.01050525      -0.53415099 
C       1.84367395      -0.25328753      -0.26787566 
O       0.58492990       1.98950817      -2.32699531 
O       0.23791610       3.17312688      -1.60348478 
O       1.83840784      -1.39178950      -0.03548901 
H      -0.68180243       3.30806603      -1.86549825 
H       2.57308524       2.39804515      -2.02803069 
H       2.10378019       0.79222647      -2.67474854 
H      -1.05875484      -0.82974652      -2.44781237 
H      -0.70318513      -0.14946814      -2.58022433 
H       1.87144743       1.72836535       0.26783760 
