8
 energy: -14.333838439268 gnorm: 0.000635703455 xtb: 6.2.3 (830e466)
C         0.55441457929034    1.60004434880573   -2.49248068710469
C        -0.23570786553690    1.09389066646527   -1.56607699175624
O         1.04977838892176    2.85867935769079   -2.57322770135295
O         0.63133083668428    3.69379067323445   -1.49614890439303
H         1.06969995472259    4.52735785811259   -1.71351185443570
H         0.93126671980122    1.05945574941741   -3.35022972220197
H        -0.55828697220450    0.07253496319810   -1.62123117937626
H        -0.57418564167878    1.68904638307566   -0.73810295937916
8
Properties=species:S:1:pos:R:3 6.2.3=T gnorm:=T pbc="F F F" -14.426615450537=T energy:=T 0.000655227705=T xtb:=T 830e466=T
C       0.42910550       2.30599658      -1.93024197 
C      -0.26851199       1.30879684      -1.40467489 
O       1.16339162       2.22749120      -3.07967194 
O       0.49700973       3.53274206      -1.37817728 
H       1.06160933       4.07979826      -1.93957712 
H       1.10144146       1.34373553      -3.45499238 
H      -0.30009814       0.34143799      -1.86749442 
H      -0.81563750       1.45480153      -0.49618000 
