12
 energy: -21.559890335989 gnorm: 0.000735730913 xtb: 6.2.3 (830e466)
C         1.90757367869649    1.28829628289835   -2.49861029605289
C         1.06528277980013   -0.17199252241966   -0.79957424915520
C        -0.18638085525733    0.24759245717875   -0.76521346729720
O         2.02224691343639    2.58923593644788   -2.02060557894143
O         2.11329639673061    0.29045893919882   -1.54522612445593
O         0.76613381722919    3.08273776870635   -1.54760307446597
H         1.03293826449013    3.81805896742349   -0.97962014690231
H         2.74553624789640    1.20120027169226   -3.19996748221323
H         0.95019568744545    1.15469614948116   -3.02244315797442
H         1.41541338900646   -1.00064774562448   -0.19897312873588
H        -0.89406081370463   -0.24538253520552   -0.12585983744035
H        -0.54877550576924    1.08564603022267   -1.33211345636518
12
Properties=species:S:1:pos:R:3 energy:=T -21.651195811981=T gnorm:=T 0.000648330950=T xtb:=T 6.2.3=T (830e466)=T pbc="F F F"
C        1.48382736       1.68127365      -2.19126616
C        0.94143878      -0.16568988      -0.81104153
C       -0.33263656       0.12273702      -0.62429398
O        2.49963778       2.04160431      -3.04295690
O        1.88090732       0.54908126      -1.49673615
O        1.19038802       2.69129158      -1.27374571
H        1.12867360       3.53135139      -1.74107300
H        3.33305048       2.00551570      -2.55435682
H        0.60434741       1.46792235      -2.82846577
H        1.40494163      -1.05941961      -0.41814535
H       -0.95534889      -0.54972562      -0.06534391
H       -0.78982692       1.02395784      -0.98838474
