12
 energy: -21.564381639176 gnorm: 0.000941553938 xtb: 6.2.3 (830e466)
C         2.00040801584525    1.53228516124625   -2.05348091677744
C         1.72673398025022    0.71279347246208   -0.81874690750955
C         0.64438484152043   -0.03604961731868   -0.63386600868997
O         0.83247869591187    1.95021012264094   -2.74540381712825
O         0.17765954297700    2.99644418751500   -2.05382470475488
O        -0.38913358884875   -0.18289588082690   -1.49065061281480
H        -0.52200837039414    2.56444094940539   -1.53778869768285
H         2.61173938958069    2.40491696444573   -1.80152684266339
H         2.52961144922380    0.94418708925942   -2.81288989803802
H         0.49113637383369   -0.60183872150077    0.27443757656247
H        -0.19642463155618    0.30759333525061   -2.30761956828022
H         2.48283430165614    0.74772293742086   -0.05424960222313
12
Properties=species:S:1:pos:R:3 6.2.3=T gnorm:=T pbc="F F F" -21.596848167906=T energy:=T xtb:=T 0.000578417118=T 830e466=T
C       2.21263851       2.18963430      -3.83639999 
C       0.49810006       0.94993335       0.41091723 
C       0.16004474      -0.19554607      -0.16940306 
O       1.43530426       1.71663557      -3.05918432 
O       0.95218815       2.09648205      -0.18280353 
O       0.18275271      -0.51084890      -1.50052969 
H       1.00989402       1.98212306      -1.14283775 
H       2.74841419       3.12830239      -3.63307021 
H       2.43918951       1.71479938      -4.80211346 
H      -0.18437099      -1.02503476       0.42548898 
H       0.50478313       0.23386816      -2.02627519 
H       0.43048171       1.05946148       1.48060101 
