12
 energy: -21.564703527093 gnorm: 0.000741460900 xtb: 6.2.3 (830e466)
C         1.81534071395688    1.64729765532008   -2.03381587142172
C         1.84069449347332    0.57053027143686   -0.98325904537180
C         0.89127376856353   -0.33888532847424   -0.78592521352589
O         0.52534941387419    2.02638243306159   -2.48607065216209
O        -0.20276195343581    2.69458619692196   -1.46818995554724
O        -0.26679097360585   -0.46639195546353   -1.45404308906075
H        -0.20970514263909    3.62275084633024   -1.74333986688029
H         2.36026151636136    2.53090357248550   -1.67512330479587
H         2.28598437062902    1.30431728221884   -2.96444800395170
H         0.99315729386843   -1.09148221489266   -0.01540902784134
H        -0.36532788697595    0.28464123333585   -2.06155321686963
H         2.72181438592988    0.55535000771948   -0.36451275257142
12
Properties=species:S:1:pos:R:3 6.2.3=T gnorm:=T pbc="F F F" energy:=T xtb:=T 830e466=T -21.620969638629=T 0.000711450357=T
C       0.85653883       1.15135973      -2.56273485 
C       0.98621851       0.66927153      -1.21110443 
C       0.82972961      -0.61288879      -0.83362695 
O       0.99839083       2.30539814      -2.90851574 
O       1.64980229       3.82991330      -0.59361310 
O       0.53379116      -1.66288063      -1.59312346 
H       1.42140866       3.44115201      -1.45334607 
H       1.90791694       4.73673344      -0.76533363 
H       0.60651553       0.38906584      -3.33217901 
H       0.94254629      -0.90202445       0.20399775 
H       0.42903970      -1.41374188      -2.52283754 
H       1.22739165       1.40864176      -0.46327295 
