4
 energy: -7.175648056027 gnorm: 0.000121116787 xtb: 6.2.3 (830e466)
C         0.84258601755707   -0.19061795867929    0.52713424514807
O         1.10205842098467   -0.74288102885626   -0.49693544627369
H         1.09546623767087    0.86618733843949    0.71706217827968
H         0.33049932378738   -0.69391835090394    1.36457902284594
4
Properties=species:S:1:pos:R:3 6.2.3=T gnorm:=T 0.000251837172=T pbc="F F F" -7.107224283101=T energy:=T xtb:=T 830e466=T
C       1.33536384       0.06885356      -0.44187313 
O       1.23756111      -0.93174329      -0.95969641 
H       0.57174450       0.13042468       1.40659191 
H       0.22594055      -0.02876495       2.10681764 
