10
 energy: -15.383496277170 gnorm: 0.000623246563 xtb: 6.2.3 (830e466)
C         0.86960473619588    1.76576697160739   -1.63743710187179
C        -0.21120458888299    0.70425538919497   -1.51517423947574
O         0.21726324985673    3.01331082397663   -1.56415588397867
O         1.19092145753180    4.05230882019033   -1.68248664845934
H         0.64839608093268    4.84454952289420   -1.58277797007959
H         1.39993317258444    1.68219868040298   -2.59450727409350
H         1.60031119659699    1.68208978049475   -0.82261377389336
H         0.24087864813877   -0.28143573966624   -1.55992808495399
H        -0.92788938677942    0.80759133286574   -2.32482206605460
H        -0.73613456617486    0.81514441803924   -0.57039695713942
10
Properties=species:S:1:pos:R:3 -15.314860071401=T 6.2.3=T gnorm:=T pbc="F F F" energy:=T xtb:=T 830e466=T 0.000914303404=T
C       0.49031698       1.98632438      -2.14953210 
C      -0.31969789       0.94607065      -2.23003091 
O       0.00321874       3.25753013      -2.12979727 
O       1.06454719       4.19999744      -2.03839412 
H       0.59282630       5.04410172      -2.04246945 
H       1.56853956       1.91665508      -2.09542034 
H       1.24363456       0.23545694       1.02119660 
H       0.07494304      -0.05125972      -2.24844468 
H      -1.38621755       1.06932835      -2.28040076 
H       0.95996906       0.48157502       0.33899303 
