12
 energy: -21.510483487752 gnorm: 0.000847047590 xtb: 6.2.3 (830e466)
C         0.43234298263648    1.50613215829982   -2.36056346096852
C        -0.81385387486951    1.07347296759314   -2.36975748000203
C         2.21138543007104   -0.20054903818835   -0.29360816285258
O         0.88418134237200    2.30988616284740   -1.34963062959622
O         2.25765720009950    2.62209876319739   -1.49842303487180
O         2.01248022875865   -0.95344638337642   -1.19757507054781
H         2.28454501290553    3.58587164910269   -1.41215003423322
H         3.17381038306859    0.31630706268145   -0.14951517877270
H         1.16803397367400    1.26465062916927   -3.11414735371452
H         1.44403018999147    0.03951009873395    0.46043376716638
H        -1.16171654641709    0.44253518902589   -3.16311495817052
H        -1.50379632228997    1.33372074091434   -1.58794840343482
12
Properties=species:S:1:pos:R:3 6.2.3=T gnorm:=T pbc="F F F" -21.490381556417=T energy:=T 0.000171983216=T 830e466=T xtb:=T
C      -0.03349662       1.26707512      -2.70270070 
C      -1.33398360       1.04878336      -2.70812913 
C       2.87684605       0.85976430       0.01723233 
O       0.57190544       1.85997855      -1.62210516 
O       1.95317534       2.01124795      -1.78250417 
O       2.63003802       0.86102528      -1.37415154 
H       3.48917081       1.71579632       0.30949038 
H       3.41842229      -0.06811198       0.18776855 
H       0.63313752       1.00578169      -3.51346219 
H       1.94114545       0.85766330       0.58341974 
H      -1.80568008       0.59187559      -3.55603154 
H      -1.95158061       1.32931051      -1.87482657 
