10
 energy: -15.384857809630 gnorm: 0.000655972371 xtb: 6.2.3 (830e466)
C         0.80122945307581    1.63464457101013   -2.25232572320997
C        -0.19802307350050    0.89294870852902   -1.37212929413319
O         0.69786030480709    3.03341480774571   -2.15798831325053
O         1.15997564257957    3.45848385971644   -0.87094626467983
H         0.96462573097317    4.40349065559326   -0.89456831623109
H         1.82597674503260    1.32382253769199   -2.01355960590674
H         0.60572664209670    1.45298903570970   -3.31253687876886
H        -0.00745713610895    1.12328815910081   -0.32715019250456
H        -0.09574642875346   -0.17802274845260   -1.52362716178384
H        -1.21316788020203    1.19415041335558   -1.61915824953140
10
Properties=species:S:1:pos:R:3 6.2.3=T gnorm:=T pbc="F F F" 0.000643540459=T energy:=T xtb:=T -15.329778763750=T 830e466=T
C       1.04440224       0.79318508      -2.29288110 
C       0.09071709       0.35111174      -1.49494073 
O      -0.39067003       3.50370783      -1.23656771 
O       0.95647031       3.95666215      -1.24156869 
H       0.84931942       4.90248712      -1.08068452 
H       2.01926355       1.06328805      -1.92178059 
H       0.89093751       0.91459146      -3.35302126 
H       0.24691713       0.22265759      -0.43595366 
H      -0.88512545       0.07754922      -1.86514768 
H      -0.28123177       2.55396975      -1.42144406 
