12
 energy: -21.561958562782 gnorm: 0.000352158452 xtb: 6.2.3 (830e466)
C         1.69565411458583    1.43793475699083   -2.46145732747191
C         0.98410336439086   -0.13020448800809   -0.83405773274072
C        -0.31465883766766    0.04065751205511   -1.00382113445173
O         1.02072921130176    2.58105997111815   -2.03677412542933
O         2.01050613621293    0.53839326117384   -1.44025923964285
O         1.90028061618534    3.48967145022846   -1.40499176310977
H         1.77090843583368    3.34328626910664   -0.45527660430329
H         2.65179346286472    1.69914402589388   -2.92966652288316
H         1.01304468011407    0.98864388641792   -3.19629860229789
H         1.39552160439639   -0.86022153801602   -0.15081188406233
H        -1.00939818941851   -0.57106560150534   -0.46001629096863
H        -0.72908459879945    0.78257049454467   -1.66244877263828
12
Properties=species:S:1:pos:R:3 energy:=T -21.631917059737=T gnorm:=T 0.000981755196=T xtb:=T 6.2.3=T (830e466)=T pbc="F F F"
C        1.58620481       0.50422219      -3.09696750
C        0.77939102      -0.39924703      -1.04971721
C       -0.02139332       0.55243090      -0.61367290
O        1.50875784       1.67076393      -2.83621183
O        1.29752737      -0.52933421      -2.33329041
O        1.45907540       3.52624897      -0.58369230
H        1.46540885       2.93273376      -1.34468587
H        1.97640904       4.29031198      -0.84157913
H        1.95561221       0.12237467      -4.06454632
H        1.09732998      -1.23979239      -0.44904518
H       -0.37159808       0.53276109       0.40112995
H       -0.34332513       1.37639615      -1.22360130
