10
 energy: -20.453735557431 gnorm: 0.000918220613 xtb: 6.2.3 (830e466)
C         1.01642699561896    0.76593398355680   -2.57174583225273
C         1.21830902347746    0.41501450021536   -1.44021488779004
C         1.45427098030538    0.01787441518060   -0.08679652454265
O         0.12392638538218    3.11010253206749   -0.25880195301627
O         0.40946713516338    3.74265009158972   -1.49768538188317
O         1.65065219378972   -1.10653005848895    0.28902125176146
H         1.26053708642291    4.16429994593133   -1.31971479889299
H         0.83440268457456    1.09309631090467   -3.55347615373741
H         1.43315591417112    0.88080445043528    0.60855400820111
H        -0.76514839890572    2.76303382860697   -0.40993972784977
10
Properties=species:S:1:pos:R:3 6.2.3=T gnorm:=T -20.521023355572=T pbc="F F F" energy:=T xtb:=T 830e466=T 0.000391876326=T
C       0.40955762       1.21935619      -2.19437640 
C       0.90590787       1.42281526      -0.97439999 
C       1.42669463       0.32987678      -0.12787232 
O       1.01085060       2.61880550      -0.33025118 
O       0.50846421       3.70183609      -1.10210095 
O       1.46604971      -0.82462793      -0.45588138 
H       0.70457790       4.45902548      -0.53321239 
H       0.38563127       0.21827282      -2.58260165 
H       1.78705962       0.67674198       0.85708678 
H       0.03120656       2.02417784      -2.79719052 
