10
 energy: -20.529386965221 gnorm: 0.000449400202 xtb: 6.2.3 (830e466)
C         1.08124842342085    1.77792064443141   -1.74762596424881
C         0.80984089630314    1.20234434528352   -0.57010152266452
C         1.10590059959703   -0.20505146411880   -0.36575798412027
O         0.88858854362365    3.03454492628395   -2.13367732054572
O         0.31586607317073    3.86197086736174   -1.12668788276818
O         1.59378627563431   -0.94536465461168   -1.18647660391526
H         0.21658692262002    4.70770208245746   -1.58706729608778
H         1.52169165481600    1.22070650428404   -2.56650381653116
H         0.84129232747976   -0.57394168402374    0.64322099984426
H         0.37289828333456    1.76767843265198    0.23637739103753
10
Properties=species:S:1:pos:R:3 6.2.3=T gnorm:=T pbc="F F F" 0.000741171316=T energy:=T -20.469970451304=T 830e466=T xtb:=T
C      -0.34215217       0.69770891      -2.08936195 
C      -1.02800836       1.38129025      -1.38978630 
C       2.22882560       1.07816753      -0.58891580 
O       2.18379646       2.34324553      -1.02284672 
O       1.36892662       3.16490539      -0.21746902 
O       2.87296380       0.25433324      -1.15224309 
H       1.20193325       3.92883558      -0.79070797 
H       0.25984030       0.09666407      -2.70552621 
H       1.62705483       0.92084702       0.32267487 
H      -1.62548032       1.98251246      -0.77011781 
