12
 energy: -21.511844077369 gnorm: 0.000560509149 xtb: 6.2.3 (830e466)
C         0.62166491739917    1.05419550900645   -2.40771788287587
C        -0.44579584732865    0.55302026362619   -1.44398981786449
C         3.17391102265445    0.93979732671559   -0.48391193151757
O         0.94085132385164    2.41421953382038   -2.23459875859796
O         1.58638448603770    2.61904421692912   -0.98012235804415
O         2.77104042118279    0.50497317457480    0.48231177887236
H         2.23899218883149    3.30144572000524   -1.19022265605999
H         1.53527874356736    0.44999027374588   -2.32060137783203
H         0.26688582202536    1.02863556636695   -3.44142950094029
H        -0.66790358264418   -0.48974715374252   -1.65175247320767
H        -1.35327860426764    1.14198618481443   -1.54890350995242
H        -0.08913089131175    0.64371938413910   -0.42108151197951
12
Properties=species:S:1:pos:R:3 0.000316470751=T 6.2.3=T gnorm:=T pbc="F F F" -21.494812369395=T energy:=T xtb:=T 830e466=T
C       1.16856465       1.41946683      -2.40339397 
C       0.42601522       0.70392830      -1.27307395 
C       0.59046797      -0.77994278      -1.34751916 
O       0.83374187       2.77705469      -2.51680579 
O       1.32786746       3.49202060      -1.37912404 
O       0.78200634      -1.36552424      -0.23185876 
H       1.41207750       4.38977012      -1.72396157 
H       2.25205748       1.30819333      -2.27127660 
H       0.87633341       1.00315972      -3.36953891 
H       0.83223381      -0.80074852       0.58421148 
H      -0.64657572       0.88367716      -1.41061848 
H       0.72411003       1.13022479      -0.29906024 
