12
 energy: -21.511199199824 gnorm: 0.000098277597 xtb: 6.2.3 (830e466)
C        -0.00436070057256    1.14982007820432   -2.47966045076050
C        -1.27242865081193    0.78295532149001   -2.49275303962374
C         3.03563458696294    0.53803883139323   -0.13326226466196
O         0.46469772149446    2.03072088022315   -1.55103401958833
O         1.86701555971119    2.21365055049575   -1.69411064505656
O         3.49495758529268    1.34781438217341    0.61642502429441
H         2.04468435062644    2.96835052705630   -1.11407257410715
H         3.56497324218213    0.19418786472833   -1.03594131036040
H         0.73922950110845    0.79782756264276   -3.18131051666832
H         2.05987876746240    0.05441486841002    0.03798020768336
H        -1.63194684682543    0.09809339922970   -3.23507669232047
H        -1.97303511663061    1.16412573395333   -1.77298371882989
12
Properties=species:S:1:pos:R:3 0.000865624331=T 6.2.3=T gnorm:=T -21.562694097832=T pbc="F F F" energy:=T xtb:=T 830e466=T
C      -0.02325960       0.86658926      -2.57867687 
C      -1.33278846       1.03429736      -2.56468610 
C       2.82921336       0.95527625      -0.55107250 
O       0.73253671       1.14357759      -1.48149309 
O       2.12538082       0.92057264      -1.75362233 
O       2.98943490       2.22671720      -0.02676728 
H       2.11793202       2.61742475       0.11814550 
H       3.82342977       0.58576414      -0.81911321 
H       0.53718453       0.50880349      -3.43051928 
H       2.35223305       0.27642159       0.17869238 
H      -1.91775620       0.80923491      -3.43504652 
H      -1.84424088       1.39532082      -1.69164069 
