12
 energy: -21.559753384662 gnorm: 0.000948240036 xtb: 6.2.3 (830e466)
C         2.27853432475155    1.38140814661175   -2.08249637394073
C         0.50555208478383    0.15661539076346   -1.16044712966229
C        -0.36352769742586   -0.13075574476789   -0.20887664195665
O         1.56571656670215    2.20128116742099   -2.95756238925121
O         1.55441048690025    1.01273445809731   -0.95039849646715
O         1.48920536578150    3.52623279414364   -2.47395821434020
H         0.64227087071849    3.57590587390584   -2.00246961431613
H         3.18208605722852    1.88282068201099   -1.71756708087823
H         2.53911283507756    0.51289319738898   -2.70491487231987
H         0.44501467235385   -0.26519314945800   -2.15767960320360
H        -1.16414458862534   -0.82182034501991   -0.38842307433564
H        -0.28504097824625    0.30787752890296    0.76899349067150
12
Properties=species:S:1:pos:R:3 energy:=T -21.512609601940=T gnorm:=T 0.000560831073=T xtb:=T 6.2.3=T (830e466)=T pbc="F F F"
C        3.36291842       1.15464694      -2.40708499
C        0.23152004       0.44853675      -1.25316340
C       -0.88259374       0.45994226      -0.54817071
O        0.82109149       1.48613119      -1.91141937
O        3.54913203       0.35557618      -1.53925685
O        0.13285057       2.71386086      -1.79966381
H        0.46451992       3.11429488      -0.98051461
H        3.54476954       2.23331633      -2.27218506
H        3.01378766       0.87445284      -3.41245493
H        0.86635898      -0.41433758      -1.39317222
H       -1.23254361      -0.43371904      -0.07057589
H       -1.48262129       1.34729840      -0.44813815
