9
 energy: -16.535977479838 gnorm: 0.000597804334 xtb: 6.2.3 (830e466)
C         0.89544652018962    1.12552074933189   -2.62772126509460
C         0.34077622309736    0.43354515736968   -1.40564227630200
C         1.15278201635223   -0.75035874635677   -0.95729268694533
O         0.42729447038053    2.11354074145636   -3.11407558001079
O         2.14498216916224   -1.15717774842273   -1.48625253394030
H         1.79098402573334    0.63276683233943   -3.04568317362499
H         0.74132557806633   -1.23894398451603   -0.05196726603285
H        -0.68323450332727    0.10546798630975   -1.61086227967829
H         0.26234350034562    1.15052901248842   -0.58249293837086
9
Properties=species:S:1:pos:R:3 0.000435863289=T 6.2.3=T gnorm:=T -16.554213097748=T pbc="F F F" energy:=T xtb:=T 830e466=T
C       1.73092678       0.78952424      -2.84251649 
C      -0.27966556       0.26025360      -0.75873421 
C       0.76935464      -0.48147664      -1.06137112 
O       0.94856664       1.68906234      -2.90649454 
O       1.73273834      -0.25511730      -2.02615721 
H       2.61884378       0.69871294      -3.49459320 
H       1.00542758      -1.40707975      -0.55355598 
H      -0.94011584      -0.05662488       0.02801754 
H      -0.51337635       1.17763545      -1.26658478 
