12
 energy: -21.617357271504 gnorm: 0.000389791177 xtb: 6.2.3 (830e466)
C         1.32755651552312    0.77680849245726   -2.68933568272644
C         0.57040460724835    0.55938180343226   -1.41195344809170
C         0.98606371310571   -0.69816483857909   -0.69312184948771
O         1.66283672312914    1.85241425539286   -3.10583146433980
O         1.08762401093509    3.63815137041135   -0.94740790227054
O         1.54729789990980   -1.63128919480356   -1.18785603411930
H         1.43914359125486    4.52844623423025   -0.89710406462317
H         1.33735421120618    3.28900045929734   -1.81613019475829
H         1.56823567793594   -0.15224831329860   -3.23189654097994
H         0.70893353929363   -0.69237615279076    0.37802210681095
H        -0.48673988081249    0.43590623135836   -1.67277911014963
H         0.64037939127091    1.43406965289138   -0.76030581526284
12
Properties=species:S:1:pos:R:3 6.2.3=T gnorm:=T -21.649369954807=T pbc="F F F" 0.000335176233=T energy:=T xtb:=T 830e466=T
C       1.37416094       1.59047824      -2.04607211 
C       0.37977823       0.75291244      -1.23150436 
C       1.00377343      -0.46973156      -0.62041948 
O       0.62499922       2.34641831      -2.96012321 
O       2.17017842       2.40861680      -1.24722391 
O       2.01753004      -0.99256621      -0.97946519 
H       1.60445564       3.00949231      -0.74446835 
H       1.22583029       2.87795282      -3.49507446 
H       2.07938764       0.92244746      -2.56190534 
H       0.40904757      -0.88662718       0.21682689 
H      -0.41028328       0.41738105      -1.90883639 
H      -0.08976814       1.36332553      -0.45743408 
