12
 energy: -21.512020068855 gnorm: 0.000368224081 xtb: 6.2.3 (830e466)
C         0.40033748605646    1.63622658793593   -1.84525820307902
C         0.84386840505753    1.03825347319207   -0.73591705391226
C         0.75296331455937   -0.39931475675602   -0.56288944809888
O         0.41090997173083    2.93447592249067   -2.15140030711944
O         0.97412211549718    3.75334140758486   -1.13633427617668
O         1.13400251100746   -1.00886349791642    0.40475261316152
H         0.87415113082788    4.64180334587594   -1.50685011435636
H         2.54444664734911   -0.41375389674250   -2.91500899691326
H        -0.04562120174316    1.10201786165234   -2.67642555060236
H         0.28364628986799   -0.92519960406943   -1.42047272534578
H         2.93231564168811   -0.63423875316032   -3.55304341077581
H         1.28416768810150    1.61524190996719    0.06295747322053
12
Properties=species:S:1:pos:R:3 6.2.3=T gnorm:=T -21.559314603028=T pbc="F F F" energy:=T xtb:=T 0.000790624796=T 830e466=T
C       0.67571485       1.78745996      -2.24470382 
C       0.90101248       0.98917988      -1.21561412 
C       1.01116549      -0.49916218      -1.34383927 
O       0.57261556       3.13888212      -2.24819020 
O       0.74730996       3.71224175      -0.95652419 
O       2.27024793      -0.98370541      -0.92519690 
H       0.58489758       4.64891983      -1.13339072 
H       2.95788450      -0.51377870      -1.40925546 
H       0.51794806       1.45013570      -3.26053623 
H       0.28819505      -0.98988873      -0.68616660 
H       0.80727741      -0.80396923      -2.38092484 
H       1.05504112       1.40367500      -0.23154765 
