9
 energy: -16.536962589075 gnorm: 0.000680843432 xtb: 6.2.3 (830e466)
C         0.80110197073772    0.96387664100710   -2.62811901193481
C         0.53993431186042    0.44516578120902   -1.23032419276270
C         0.96689978494819   -1.00084035571703   -1.16371200984192
O        -0.02190126573770    1.47986504616631   -3.32204898899453
O         2.09080485924438   -1.37927462864683   -1.31672226155920
H         1.84344386598790    0.80707895861802   -2.95621336827663
H         0.13714502932568   -1.70742502288980   -0.98302797443621
H        -0.50742718681573    0.57670969694702   -0.96420256442763
H         1.18199863044911    1.02275388330617   -0.56072962776638
9
Properties=species:S:1:pos:R:3 0.000778612406=T 6.2.3=T gnorm:=T -16.496610034379=T pbc="F F F" energy:=T xtb:=T 830e466=T
C      -0.11582495       0.70529686      -2.60956869 
C      -0.28242146      -0.08213435      -1.57917340 
C       0.63208687      -1.17058009      -1.24957048 
O       0.05475881       1.38044395      -3.52564935 
O       1.62414068      -1.48666626      -1.85014881 
H       3.08435579       1.63523255      -1.86905023 
H       0.30823211      -1.71227907      -0.34357489 
H      -1.12978874       0.06953281      -0.93394190 
H       2.85646090       1.86906361      -1.16442225 
