8
 energy: -14.333832353783 gnorm: 0.000442856580 xtb: 6.2.3 (830e466)
C         0.46176406871020    1.64295747399797   -2.54339852471236
C        -0.36246114075232    1.16708456290121   -1.63077032103574
O         1.12969109403924    2.82238740010426   -2.53487456875483
O         0.87918048790922    3.59851492753631   -1.36562491725400
H         1.36736261471340    4.40936166144453   -1.56140423098493
H         0.72815607100966    1.13815281602675   -3.46179160974164
H        -0.83067632583941    0.21138468610418   -1.76248289269233
H        -0.58412686979000    1.72154647188480   -0.73755293482417
8
Properties=species:S:1:pos:R:3 6.2.3=T gnorm:=T 0.000926528274=T pbc="F F F" energy:=T -14.412684474117=T xtb:=T 830e466=T
C       0.80360531       1.73751710      -2.71879714 
C      -0.06348229       1.90071710      -1.50316211 
O       1.48531134       2.62680530      -3.15019412 
O       0.03137576       3.18366118      -0.96296855 
H       0.63284057       3.68841726      -1.53670359 
H       0.76461518       0.73848437      -3.18600498 
H      -1.10435260       1.68195750      -1.78539711 
H       0.23897673       1.15383018      -0.75467239 
