12
 energy: -21.513019988542 gnorm: 0.000683972379 xtb: 6.2.3 (830e466)
C         0.95610426488743    2.32104298785947   -2.20192276170721
C         0.89885229646532    1.52316240265054   -1.12857100120777
C         1.20602504245908    0.10981486742621   -1.25725019751362
O         0.71324132544567    3.62367911059374   -2.29511377541154
O         0.34154074022726    4.22693785062788   -1.06038328461854
O         1.52304089390015   -0.44856105669921   -2.28091530908614
H         0.16719885786881    5.14263104843924   -1.32212147734991
H         1.79286709353017   -3.58512712754025   -1.17808164233832
H         1.22972720520668    1.94198651046224   -3.18007993951100
H         1.12666193159291   -0.45323141171815   -0.30816772291553
H         1.80818521954235   -2.97443228818695   -1.66163962714642
H         0.62586512889826    1.91210710606051   -0.16152326118839
12
Properties=species:S:1:pos:R:3 0.000411666318=T -21.560067185856=T 6.2.3=T gnorm:=T pbc="F F F" energy:=T xtb:=T 830e466=T
C       1.07902401       1.77129435      -2.15081898 
C       1.03788806       1.05084776      -1.04367435 
C       1.37516251      -0.41109985      -0.99810306 
O       0.78933365       3.08806675      -2.30431799 
O       0.41004546       3.72006926      -1.08471342 
O       1.51054831      -1.01661417      -2.25990718 
H       0.42974566       4.65422399      -1.33281963 
H       2.34098483      -0.55234059      -0.50125042 
H       1.36535575       1.38641064      -3.11990901 
H       0.61315875      -0.93349812      -0.39802803 
H       0.67774869      -0.92335903      -2.73556197 
H       0.76031431       1.50600901      -0.10666597 
