12
 energy: -21.510120829083 gnorm: 0.000692257104 xtb: 6.2.3 (830e466)
C         0.11658004725003    1.35755856550536   -2.59874632413095
C        -0.47492711273287    0.81981150715499   -1.30171234196842
C         2.41465793321948   -0.61467122087260   -0.31453835514559
O         0.99742018996330    2.43722807723984   -2.40885526117589
O         2.18776687011258    1.97902837046576   -1.75776638611478
O         3.37355083540843   -0.06570104381698   -0.08841452383685
H         2.72408384203963    2.78170154123845   -1.74267268226314
H        -0.65574358517311    1.79822357987025   -3.23539293598396
H         0.62630643710190    0.55486072101370   -3.14655664678181
H         0.31997965013986    0.40371639158542   -0.68438425335752
H        -1.19282079375072    0.03665911958675   -1.52486166866058
H        -0.97091431351917    1.61787439100088   -0.75464862052052
12
Properties=species:S:1:pos:R:3 6.2.3=T gnorm:=T -21.563877046978=T pbc="F F F" energy:=T xtb:=T 830e466=T 0.000691727307=T
C       0.07690379       1.22109189      -2.50913476 
C      -0.92057669       0.82590420      -1.42221438 
C       3.17258133       0.49695173      -0.85640404 
O       1.29462775       1.65232797      -2.02064420 
O       2.11854827       0.34518713      -1.39634366 
O       3.86355890       1.54752313      -0.62745214 
H       3.43148344       2.36112968      -0.96446862 
H      -0.30400988       2.08243312      -3.07581232 
H       0.21833825       0.38912545      -3.21525850 
H      -0.54375025      -0.03090664      -0.86815806 
H      -1.87405765       0.56403203      -1.87301705 
H      -1.06770725       1.65149030      -0.72964225 
