10
 energy: -15.384863571067 gnorm: 0.000229830316 xtb: 6.2.3 (830e466)
C         1.06037421212102    1.44893303808482   -1.75058995562244
C        -0.21577022498261    1.12655069890101   -0.98201510042165
O         0.88322490589808    2.42887384239697   -2.74242939867522
O         0.64876471126784    3.69776142773125   -2.12125150953747
H         0.50235234988531    4.26766239021579   -2.88620381446681
H         1.85372634357881    1.76194725815140   -1.06023144638164
H         1.40301082983588    0.58620390811756   -2.32831146196038
H        -0.99448174250809    0.79775639989457   -1.66582624678867
H        -0.01901572340182    0.34063015049240   -0.25878466272901
H        -0.56088566169444    2.01387088601420   -0.45776640341669
10
Properties=species:S:1:pos:R:3 6.2.3=T gnorm:=T pbc="F F F" -15.329740853460=T energy:=T 0.000872112245=T 830e466=T xtb:=T
C       1.26977166       0.68940788      -1.08521261 
C       0.10530719       1.02237266      -0.56132624 
O       0.12643912       2.77325043      -3.26701882 
O       0.06672594       3.89418854      -2.39619263 
H      -0.06771338       4.62295685      -3.01494871 
H       2.15907130       1.27492933      -0.91484798 
H       1.39222021      -0.18946617      -1.69853882 
H       0.30565574       2.04814600      -2.64315509 
H      -0.78365176       0.43426025      -0.72484561 
H      -0.01252602       1.90014423       0.05267651 
