12
 energy: -21.516320440208 gnorm: 0.000918865753 xtb: 6.2.3 (830e466)
C        -0.08136366790591    1.48727574995375   -1.97579563734644
C        -0.94157057585847    0.84169428155511   -1.21003907889844
C         2.64812209679484    0.34825788694596   -0.92007341551196
O         1.08203894000882    1.99127872792142   -1.45594449545125
O         1.82777618471595    2.68121618991883   -2.42494306371724
O         3.40219567147401    0.66317857546072   -1.80554734281166
H         2.67238236976348    2.17970455112983   -2.48211338101313
H         2.71019945160884    0.77987845478881    0.08960559425289
H        -0.22246460178209    1.67136305998668   -3.03137487947689
H         1.90578083099319   -0.45616410297371   -1.03693238485920
H        -1.85440436240798    0.45764976488504   -1.62137288877719
H        -0.75940233740481    0.69476686042765   -0.16118902638902
12
Properties=species:S:1:pos:R:3 6.2.3=T gnorm:=T pbc="F F F" -21.506930992855=T energy:=T xtb:=T 830e466=T 0.000816596340=T
C       0.30047385       1.40333413      -2.30951559 
C       0.14623037       0.10654118      -1.98615909 
C       1.21575721      -0.68489217      -1.40485570 
O       1.45175634       2.03926932      -2.11846943 
O       1.38200802       3.39051313      -2.54044503 
O       2.31871532      -0.27878617      -1.12544190 
H       2.25957736       3.72846959      -2.31026595 
H       2.00079619       1.64105404       0.67659065 
H      -0.49849404       1.99406934      -2.74401159 
H       0.93679370      -1.74120111      -1.22283482 
H      -0.80572440      -0.36354089      -2.16483016 
H       1.68140008       2.10526962       1.21451861 
