12
 energy: -21.614998338582 gnorm: 0.000732111733 xtb: 6.2.3 (830e466)
C         0.39883762237642    0.75359905635178   -2.96004198351964
C         0.35186546160580    0.61857096043834   -1.46409720609990
C         1.28438044245270   -0.44324229489434   -0.95945132859463
O        -0.54483427682158    1.00213286179218   -3.65338163118908
O         1.79318408549719    3.22416228913337   -0.56714198598314
O         2.35697457906652   -0.70044393462826   -1.42748669591522
H         1.63573716418424    4.12239675174105   -0.86760607339759
H         2.74380020612128    3.10367511434061   -0.50755730494552
H         1.41029127657431    0.60019268724441   -3.37705079822157
H         0.89839762336259   -0.99170809562507   -0.07879412811412
H        -0.66850676247593    0.47759947777963   -1.10926171814474
H         0.72886257805425    1.57265512632690   -1.06391914587582
12
Properties=species:S:1:pos:R:3 6.2.3=T gnorm:=T 0.000490593862=T pbc="F F F" -21.624359163342=T energy:=T xtb:=T 830e466=T
C       0.27579830       1.77624470      -1.81062995 
C       0.24100639       0.72650041      -0.72291981 
C       1.13079607      -0.43686106      -1.09416707 
O       0.07846029       1.56794909      -2.97509965 
O       0.57097539       2.97889303      -1.31744000 
O       1.89534806      -0.97001838      -0.34792468 
H       0.60886979       3.64533106      -2.02231071 
H       3.53166098       1.64132899      -2.21616939 
H       3.30000564       1.67169389      -2.95779313 
H       1.00498381      -0.75581072      -2.14390556 
H      -0.77953022       0.33859426      -0.66319034 
H       0.53061551       1.15574474       0.23576028 
