12
 energy: -21.563089649630 gnorm: 0.000351283576 xtb: 6.2.3 (830e466)
C         1.69984227853382    1.67063055491843   -2.33462923195710
C         0.82928496334160    0.53536531492655   -1.89411565229945
C         1.08574509735399   -0.19818611626062   -0.82034400941183
O         1.07672021547311    2.93013928300320   -2.20106718817338
O         0.94249920135455    3.24481596344727   -0.81183570564478
O         0.33223652941411   -1.21760907027399   -0.35584003056193
H         0.44558580195368    4.07194906034052   -0.84364663179430
H         2.64660142669033    1.66560955475029   -1.78227743682422
H         1.89800193150152    1.62480936114253   -3.40989573274934
H         1.96689028716577   -0.05087961443279   -0.21268217663699
H        -0.46065917591225   -1.31437284238661   -0.89958500098444
H        -0.07352855687035    0.37763855082533   -2.46976120296228
12
Properties=species:S:1:pos:R:3 6.2.3=T gnorm:=T pbc="F F F" energy:=T 0.000427514031=T xtb:=T 830e466=T -21.559316400822=T
C       1.36763297       1.86152677      -2.18403650 
C       1.09008022       1.05175369      -1.17655560 
C       1.55536691      -0.37085109      -1.11777286 
O       0.98836329       3.15252778      -2.34834805 
O       0.16908000       3.62963708      -1.28634649 
O       0.48099864      -1.28515201      -1.04411610 
H       0.08523750       4.56715168      -1.50735915 
H       2.19229657      -0.59489539      -1.98596020 
H       1.97631341       1.59402802      -3.03747602 
H       2.13377328      -0.54235218      -0.20544496 
H      -0.11853179      -1.11558982      -1.77927119 
H       0.46860898       1.39212548      -0.36299289 
