12
 energy: -21.522113041740 gnorm: 0.000510325866 xtb: 6.2.3 (830e466)
C         1.25810683450008    0.95870783439247   -2.73909917432211
C         0.23707833131138    0.98323129186971   -1.59959082622102
C         0.97261750275671    0.87647362504396   -0.26383331136297
O         2.37043611574147    1.81259643111771   -2.44389038299964
O         2.08640044820950    2.61502314216614   -1.33971352248847
O         2.04946595665545    1.82032126942567   -0.19199496499508
H         0.29623472778383    1.07066238082533    0.57479973672529
H         1.67738670387589   -0.04510733042662   -2.86551541277487
H         0.80215750410782    1.28513244641207   -3.68041069513820
H         1.41936138680754   -0.11816323104662   -0.14939256115491
H        -0.46248708913573    0.15733123869883   -1.70690825660818
H        -0.31726842261395    1.92389090152135   -1.63024062865983
12
Properties=species:S:1:pos:R:3 6.2.3=T gnorm:=T -21.465716072426=T pbc="F F F" energy:=T xtb:=T 830e466=T 0.000743711470=T
C       1.11766935       1.29128437      -2.72999196 
C       0.10341682       1.66009215      -1.68640521 
C       0.52199961       1.96979420      -0.46557595 
O       2.36522766       1.01256589      -2.10861987 
O       2.68371052       2.04995996      -1.23468961 
O       1.83752241       2.01699913      -0.10911867 
H      -0.10279580       2.19495286       0.38328757 
H       0.85446822       0.35391226      -3.22489581 
H       1.22884820       2.08227363      -3.48557066 
H       1.68928259      -1.39494249      -0.90445783 
H       1.02750160      -1.53922869      -0.52240384 
H      -0.93736117       1.64243672      -1.94734815 
