12
 energy: -21.579061455212 gnorm: 0.000382317525 xtb: 6.2.3 (830e466)
C         1.59271223035023    1.35254808331283   -2.47038925280339
C         0.25396707476087    0.10541266832340   -0.68608734300360
C         1.45700830014263    0.11799112563760   -1.57470918228489
O         0.72033336022900    2.41302585430432   -2.18315878249942
O         1.07408096337039    3.02921857872763   -0.95012889426993
O         2.28093050652853   -0.75800310106825   -1.62416399635424
H         1.16172082282641    3.96422150629972   -1.18060021380001
H         2.64037841099469    1.68121236114527   -2.46706879554389
H         1.32337108743261    1.06573775028482   -3.49213896545199
H         0.17061901874676   -0.84828277414977   -0.17372201761503
H        -0.63835720986624    0.30652033066058   -1.27496555399458
H         0.35243543448413    0.91018761652185    0.04124299762097
12
Properties=species:S:1:pos:R:3 6.2.3=T gnorm:=T 0.000559399810=T pbc="F F F" energy:=T -21.649199410523=T xtb:=T 830e466=T
C       2.29396041       1.88618422      -3.28118194 
C       0.00989216      -0.00049951      -0.06269751 
C       0.71762954       0.89954605      -1.03566891 
O       1.71836597       2.92112073      -3.02172365 
O       0.57531246       2.17474927      -0.75303819 
O       1.34978175       0.47398493      -1.98517090 
H       0.99061561       2.74535552      -1.44401085 
H       3.23945115       1.60256353      -2.79559970 
H       2.02471482       1.27121249      -4.14931605 
H       0.44050024      -0.99642924      -0.09285676 
H      -1.03829953      -0.05896461      -0.35103837 
H       0.06727541       0.42096662       0.93641282 
