10
 energy: -20.529548658364 gnorm: 0.000958828101 xtb: 6.2.3 (830e466)
C         1.47346765870875    1.65744830077323   -2.41482784779051
C         1.27959741502809    0.61804820842454   -1.33536085866024
C         2.24671675196439   -0.09209867953894   -0.85233542291045
O         1.63477980201082    2.95998988890615   -1.91415387913856
O         0.40000686176298    3.40938780577086   -1.35205485336517
O         3.10817722005439   -0.76519964063254   -0.45763976961752
H         0.66950610981157    4.20583458110863   -0.87727250017243
H         2.40338237877778    1.48989651683205   -2.96194864836578
H         0.62123622587310    1.62969674956743   -3.10416747270785
H         0.30822957600808    0.57769626878856   -0.87384874727155
10
Properties=species:S:1:pos:R:3 0.000885651939=T 6.2.3=T gnorm:=T pbc="F F F" energy:=T xtb:=T 830e466=T -20.550930142803=T
C       2.09436477       2.01328475      -3.59929191 
C       0.78641797       1.22579654       0.15435964 
C       1.45922682       0.48643824      -0.67299084 
O       1.43582570       2.50631860      -2.73154631 
O       0.34285879       2.51450008      -0.04484765 
O       2.05804149      -0.22624930      -1.38990204 
H       0.59313792       2.80021741      -0.93409061 
H       3.19396549       1.99452924      -3.56798822 
H       1.64503048       1.54187238      -4.48587126 
H       0.53623057       0.83399205       1.12855920 
