12
 energy: -21.604376602262 gnorm: 0.000659136699 xtb: 6.2.3 (830e466)
C         1.23291618599847    1.26025789461463   -2.81497404417421
C         0.13769880854242    1.02458435036330   -1.77616213164563
C         1.02982622934636    0.84644277157483   -0.54578787244145
O         2.29227378200125    0.41755663114963   -2.42598941353878
O         1.29267868448777    2.10498689231268   -0.00031471990175
O         2.18606483515002    0.21437063426759   -1.00596370418750
H         2.05964239551531    2.04233671933590    0.58016373958991
H         1.55063940916567    2.31151400395516   -2.80174260902801
H         0.95535635512012    0.96133667609260   -3.82584397738324
H         0.60218534025427    0.17661933908836    0.21713337481583
H        -0.41751155065399    0.11074900353172   -1.97903957048966
H        -0.53255047492766    1.86925508371360   -1.65717907161551
12
Properties=species:S:1:pos:R:3 6.2.3=T gnorm:=T pbc="F F F" energy:=T -21.592398500463=T xtb:=T 0.000523045505=T 830e466=T
C       1.49757186       1.46652312      -2.66521258 
C       0.65688073       1.56578961      -1.37640635 
C       0.81991991       0.12613301      -0.81761610 
O       1.62845424       0.09257717      -2.92442679 
O       1.19295952       2.57244717      -0.56400274 
O       1.76833709      -0.50902549      -1.64439879 
H       0.63783917       2.69623723       0.21352271 
H       2.46818288       1.94166606      -2.47513716 
H       1.01992422       1.90759575      -3.53806914 
H       1.23488506       0.12346778       0.19172471 
H      -0.13635405      -0.41182840      -0.83783117 
H      -0.39938062       1.76842698      -1.59784660 
