12
 energy: -21.530392488246 gnorm: 0.000423411691 xtb: 6.2.3 (830e466)
C         1.05739687294632    1.36180156271682   -2.72124130347291
C         0.62034394239960    0.34959616502904   -1.65581238989010
C         0.79434366202303    1.01562028993272   -0.28583074567102
O         2.35413883854895    1.84968109660138   -2.41614459336487
O         2.32128650621046    2.48356792315420   -1.16875723092932
O         2.11111720790277    1.52986172559595   -0.16619063511813
H         0.06235646972945    1.82374566651293   -0.15380099724768
H         1.16621542929673    0.90400519900629   -3.70488916848279
H         0.34555380426059    2.19643701225880   -2.77571138063534
H         0.70839721569428    0.30151014993171    0.53370692233265
H         1.26375232828665   -0.52989711993276   -1.71133220680810
H        -0.41530227729883    0.05397032919292   -1.80969627071238
12
Properties=species:S:1:pos:R:3 6.2.3=T gnorm:=T xtb:=T pbc="F F F" energy:=T 0.000742831827=T 830e466=T -21.465099181337=T
C       1.69655313       1.32055361      -2.20326314 
C       0.84371937       0.87364716      -1.28948358 
C       1.02009295       1.30530872       0.13794100 
O       2.70795515       2.19305772      -1.92907565 
O       2.53688456       2.81942266      -0.67851829 
O       2.31439129       1.86510660       0.31181167 
H       0.24309267       2.02002841       0.44529781 
H       1.71676731       1.04170859      -3.24417155 
H      -0.90794888       0.01352281      -4.40040785 
H       1.01015729       0.44964696       0.81657458 
H      -0.84068336      -0.75779941      -4.46827711 
H       0.04861853       0.19569615      -1.53412787 
