10
 energy: -20.588180807507 gnorm: 0.000428725943 xtb: 6.2.3 (830e466)
C         1.43467526270282    1.41052823240968   -3.02798095279271
C         0.68979918492795    0.60059252639512   -1.97608579961009
C         1.72165666247611    0.57768884215107   -0.85233358415253
O         2.35110631125127    2.20688340225707   -2.28940308300218
O         2.66686288396394    1.49730755023028   -1.10949728238607
O         1.75296997834053   -0.11508130827126    0.11539481190326
H         1.97964894910184    0.75894942754796   -3.72394580907272
H         0.81397736553477    2.11234267557745   -3.58489093378788
H         0.42758232708009   -0.40663897739547   -2.28827326724344
H        -0.20567892537931    1.10421762909809   -1.60728409985563
10
Properties=species:S:1:pos:R:3 6.2.3=T gnorm:=T pbc="F F F" -20.535613728188=T energy:=T xtb:=T 0.000924298240=T 830e466=T
C       1.02725666       2.13461135      -2.47165334 
C       0.46509412       1.39102051      -1.51100576 
C       1.58009917       0.78525089      -0.78432939 
O       2.36568359       2.08528524      -2.45748743 
O       2.72902127       1.24686004      -1.40734016 
O       1.63287192       0.04422979       0.14811452 
H       2.20540324      -0.88615833      -3.88394375 
H       0.61529071       2.75736971      -3.24420162 
H       1.57889212      -1.05058762      -3.45151361 
H      -0.56701279       1.23890842      -1.28093947 
