12
 energy: -21.522099689767 gnorm: 0.000400725564 xtb: 6.2.3 (830e466)
C         1.35879691081344    0.92675781857105   -2.71016049673633
C         0.29794928705858    0.78745699146618   -1.61757525457520
C         0.96005506326450    0.96054398232349   -0.25004401945044
O         2.17961825970915    2.07984376602500   -2.48248162268930
O         1.67913486914478    2.83565652474938   -1.42193332595766
O         1.81467235929329    2.11149003521904   -0.23711388576571
H         0.20882271127220    1.07883354502333    0.53815604219571
H         2.03448889153464    0.06403562590964   -2.70550093115252
H         0.89538539829937    1.02158598354890   -3.69802928550964
H         1.59958299192126    0.10131649854222   -0.01845151824015
H        -0.17756508604261   -0.18872294069313   -1.68123239326171
H        -0.46133165626860    1.56132216931490   -1.75124330885704
12
Properties=species:S:1:pos:R:3 6.2.3=T gnorm:=T pbc="F F F" -21.480799175906=T energy:=T 0.000491093101=T xtb:=T 830e466=T
C       1.40548889       0.71179314      -2.61485940 
C       0.48570514       0.14024859      -1.56935963 
C       0.65254379       0.27053338      -0.26665068 
O       2.31391505       1.69737278      -2.15517927 
O       1.72607356       2.96492132      -2.09890578 
O       1.35988622       3.30286632      -0.80094763 
H      -0.03299033      -0.16421353       0.43964795 
H       2.06386050      -0.07615675      -2.99757837 
H       0.82432714       1.10925992      -3.45710775 
H       1.48822154       0.81473190       0.14321340 
H      -0.34485325      -0.41982333      -1.97803137 
H       0.44743175       2.98858625      -0.67985148 
