12
 energy: -21.572036215940 gnorm: 0.000350341599 xtb: 6.2.3 (830e466)
C         1.44328587440372    1.36909548298994   -2.51941605483201
C         0.75290236405824    0.18581001617959   -1.85629201341018
C         1.62484705785767    0.00841562082936   -0.61722503362989
O         2.07194294262701    2.06231719359636   -1.45039435797095
O         2.38656677770243    1.10521220073259   -0.46003525039319
O         1.68265316876592   -0.91851805392957    0.12741903265559
H        -0.88085196622083    3.27794024652233   -0.45160640789744
H         2.19638363545689    1.03860109801359   -3.24716442865081
H         0.76716019400782    2.08757415324875   -2.98261101251516
H        -0.12966307725108    3.42395547970999   -0.59286947078548
H         0.73571006435138   -0.71900475202250   -2.45761520372663
H        -0.26174703575910    0.41860131412997   -1.52818979884417
12
Properties=species:S:1:pos:R:3 6.2.3=T gnorm:=T pbc="F F F" 0.000434989344=T energy:=T xtb:=T -21.676942535240=T 830e466=T
C       1.05174285       1.63924116      -2.47424935 
C       0.68405366       0.35836993      -1.72101433 
C       1.53470339       0.11634344      -0.47157903 
O       0.82087959       2.80475728      -1.69969358 
O       1.91876928       1.20902431       0.18444932 
O       1.81494005      -0.98478233      -0.09229719 
H      -0.12863607       2.93053780      -1.58707451 
H       2.12013539       1.65039206      -2.70495236 
H       0.49507671       1.69044455      -3.41712237 
H       1.64780749       2.02834050      -0.28220415 
H       0.79012978      -0.50661682      -2.37487899 
H      -0.36041211       0.40394813      -1.39538347 
