10
 energy: -20.588181157847 gnorm: 0.000582094586 xtb: 6.2.3 (830e466)
C         1.46773793379720    1.38919937296375   -3.01719023440489
C         0.76715977202835    0.47641583289897   -2.02035063182442
C         1.63700198424749    0.68760639623116   -0.78461621533700
O         2.10726445813727    2.37325680370522   -2.21674089628540
O         2.40928024060068    1.77084756181537   -0.97512687013625
O         1.68325413536053    0.03941288775508    0.21304594920559
H         2.21445203394423    0.84056643585646   -3.60639586899417
H         0.79897244096607    1.93607102756208   -3.68125819878340
H         0.74407800797350   -0.57049515683807   -2.30972099943378
H        -0.24689100705530    0.80382883804999   -1.78404603400625
10
Properties=species:S:1:pos:R:3 6.2.3=T gnorm:=T 0.000871713881=T pbc="F F F" -20.535635790267=T energy:=T xtb:=T 830e466=T
C       2.29001692       0.82724128      -2.95893087 
C       1.75365349      -0.08537584      -2.13962075 
C       1.58980534       0.59346149      -0.85497387 
O       2.49574663       2.01012861      -2.36424080 
O       2.06481617       1.88151530      -1.04682718 
O       1.16149664       0.24057671       0.20043070 
H       2.58708794       0.79384315      -3.99124029 
H      -0.87137775       2.38540094      -2.72239234 
H       1.48300062      -1.10080042      -2.33139527 
H      -0.97193599       2.20071879      -1.97320932 
