12
 energy: -21.522118896090 gnorm: 0.000618119999 xtb: 6.2.3 (830e466)
C         1.42893850731626    0.93035365749633   -2.68771474138772
C         0.25594884963039    0.99784435472448   -1.70998756985363
C         0.78840178685073    0.90204836333304   -0.27829260982320
O         2.45874856142514    1.85859620363584   -2.32242966507465
O         2.08385684816261    2.59421053894677   -1.19570164233134
O         1.94524813762689    1.73056612828633   -0.11017370411652
H         0.02419053647615    1.20874554089197    0.44464394597067
H         1.88416349306457   -0.06702930034590   -2.67305336018916
H         1.10696016310405    1.16884886209368   -3.70642028107330
H         1.11756864473887   -0.11734027367204   -0.05114205099878
H        -0.43914305908020    0.18439747034358   -1.90537296913170
H        -0.26537246931544    1.94883845426592   -1.83994535199069
12
Properties=species:S:1:pos:R:3 6.2.3=T gnorm:=T pbc="F F F" energy:=T xtb:=T 0.000796447351=T -21.465691687413=T 830e466=T
C       0.93810857       1.98420393      -2.59660868 
C       0.10388204       1.64062652      -1.62309439 
C       0.66978146       1.24714580      -0.28927157 
O       2.29158703       2.04567030      -2.44471025 
O       2.66788350       2.04229364      -1.08681481 
O       2.05994941       0.98172039      -0.41925780 
H       0.49240574       2.02091196       0.47148178 
H       1.87776220      -1.35638820      -2.08850857 
H       0.66638354       2.22977787      -3.61036123 
H       0.25170177       0.29916922       0.05583345 
H       1.32958345      -1.40605790      -2.63975558 
H      -0.95951872       1.61100647      -1.76452235 
