10
 energy: -20.588180355517 gnorm: 0.000765699493 xtb: 6.2.3 (830e466)
C         1.16969063024905    1.34525398046228   -3.03550207761690
C         1.15942290625907    1.52590411160345   -1.52419951230805
C         1.62952941561941    0.14619532331184   -1.07130106905546
O         2.12855747243079    0.32319641976202   -3.27022509590940
O         2.13892386741916   -0.50941065669355   -2.12913204234812
O         1.58033690655699   -0.33855598728436    0.01467772366219
H         0.18585607133143    1.02977299581123   -3.40803449217806
H         1.51903765845671    2.21265621153344   -3.59517731354303
H         1.88537343183824    2.26438145483513   -1.17906957353030
H         0.18447163983916    1.76390614665856   -1.10753654717294
10
Properties=species:S:1:pos:R:3 -20.529761325186=T 6.2.3=T gnorm:=T pbc="F F F" energy:=T xtb:=T 830e466=T 0.000469200569=T
C       0.97120338       1.22781258      -2.83057521 
C       0.48262419       1.27762529      -1.40219448 
C       0.56242782       0.26039629      -0.60468661 
O       2.31389153       1.62236523      -2.97069173 
O       3.16181800       0.59352359      -2.45796398 
O       0.57992658      -0.66771680       0.09207173 
H       0.83804997       0.22343699      -3.24693968 
H       0.43546581       1.95912822      -3.43933032 
H       4.02450836       1.02813308      -2.44388727 
H       0.21128436       2.23859554      -1.00130245 
