12
 energy: -21.603444494230 gnorm: 0.000522909793 xtb: 6.2.3 (830e466)
C         1.08583048910852    1.28312568208353   -2.76335726597380
C         0.13341639561825    1.00968235097838   -1.60245532630911
C         1.16426162139831    0.75153580857061   -0.48746716767806
O         2.19736981627835    0.44879916309541   -2.53257998983390
O         1.52047440703350    1.90744986972324    0.20361666642551
O         2.25424946733751    0.15537802067849   -1.12415972642273
H         2.12504845528606    2.43124141785295   -0.33817001136743
H         1.39234589167375    2.33995408580998   -2.78375222448012
H         0.68319370385255    1.00190951382733   -3.73696475301845
H         0.80407425793257    0.05092595881196    0.27275199450009
H        -0.45665966394971    0.11266905214786   -1.78066783149232
H        -0.51440484156965    1.84742907642025   -1.36228436434968
12
Properties=species:S:1:pos:R:3 6.2.3=T gnorm:=T 0.000321198481=T pbc="F F F" energy:=T -21.562208608879=T xtb:=T 830e466=T
C       0.88557885       1.03551234      -2.56935624 
C       0.14624895      -0.13847656      -1.98749616 
C       0.86792344      -0.57863080      -0.96963064 
O       2.03651811       1.16239239      -1.73812532 
O       1.31223354       3.72313078      -0.51030876 
O       2.00614233       0.11746767      -0.74888652 
H       1.73738398       2.90078913      -0.78276954 
H       0.30811676       1.96754869      -2.51903945 
H       1.20762068       0.85814693      -3.60480945 
H       0.71866272      -1.38814200      -0.28165706 
H      -0.78339993      -0.50728834      -2.36204571 
H       1.94617055       4.18764976       0.03863485 
