10
 energy: -20.526977995365 gnorm: 0.000921574244 xtb: 6.2.3 (830e466)
C         1.12232970536288    1.52542006865471   -2.12160286475497
C         1.07424927442738    0.56262095029066   -0.97135816054242
C         2.06144516012325   -0.21506955206410   -0.65653438898731
O         1.38973299715547    2.79756051278807   -1.56446869156854
O         1.46039721020026    3.75455192540167   -2.62316448402572
O         2.91405213245520   -0.95813018012365   -0.39872005529108
H         1.71023130050071    4.55785070954884   -2.14779930352358
H         1.91351760629184    1.25812245795720   -2.83246143227015
H         0.15857553522930    1.54840317895003   -2.64624868042409
H         0.22446907825371    0.62125992859657   -0.31263193861211
10
Properties=species:S:1:pos:R:3 6.2.3=T gnorm:=T -20.591032129120=T pbc="F F F" energy:=T 0.000344661505=T 830e466=T xtb:=T
C       1.35894531       1.31822232      -1.46861944 
C       1.21235586       0.15018088      -0.62214449 
C       2.02882151      -0.86824320      -0.62320857 
O       0.59711909       2.25524495      -1.45906433 
O       1.46746952       4.24822016      -3.34812156 
O       2.75848383      -1.75883898      -0.63744022 
H       0.91712373       5.03260962      -3.32425489 
H       2.23210993       1.29702214      -2.13838512 
H       1.09153609       3.63595856      -2.70050652 
H       0.36503512       0.14221356       0.04675513 
