10
 energy: -20.529554498027 gnorm: 0.000572577302 xtb: 6.2.3 (830e466)
C         1.76818489735175    1.74361628680814   -2.28162598095982
C         1.91099687304577    0.91644829189534   -1.02522451439120
C         1.79019113891899   -0.37065821461059   -1.00423366253222
O         0.50458383799746    2.34136403326084   -2.41543122105647
O         0.36373839057804    3.37446643808327   -1.43685585722405
O         1.73162756098189   -1.53163143792533   -1.00129605400681
H        -0.55051551724801    3.65474115172300   -1.56988223685052
H         1.84178531318356    1.11992462351135   -3.17464729170312
H         2.54464210715506    2.51798693597382   -2.29873932911607
H         1.99957539803552    1.46103189128024   -0.10067385215970
10
Properties=species:S:1:pos:R:3 0.000885539882=T 6.2.3=T gnorm:=T pbc="F F F" -20.469488986597=T energy:=T xtb:=T 830e466=T
C       2.44620696       1.39364527      -2.68505849 
C       2.03128697       0.56710289      -1.74524309 
C       2.00044798      -0.53834062      -1.10217226 
O      -0.14712231       2.36882274      -0.69896804 
O       0.33359284       3.48237964      -1.44131942 
O       1.78391931      -1.41111372      -0.35697944 
H      -0.30215897       4.16945003      -1.20431240 
H       3.18510807       1.11506148      -3.42759658 
H       2.05274816       2.39762210      -2.74838061 
H       0.52078098       1.68266019      -0.89857967 
