12
 energy: -21.579046925969 gnorm: 0.000634586446 xtb: 6.2.3 (830e466)
C         1.46109628423190    1.46660474762651   -2.50501598030766
C         0.28949622268567    0.05528979083156   -0.72303074270478
C         1.29947107845194    0.10465231980201   -1.82538596660865
O         0.78032286464915    2.53529093732004   -1.90378143754695
O         1.40025570976875    2.89000373910798   -0.67165110539653
O         1.95535407947082   -0.83485169112743   -2.19354089462065
H         1.50925581713048    3.84806993616292   -0.74381612543048
H         2.53192222134683    1.68376909224213   -2.61333218286290
H         1.01895510190253    1.40587744923000   -3.50462747575932
H         0.64409135003716    0.67288856512606    0.10117136944776
H         0.14991716079679   -0.96686233192307   -0.38471909800399
H        -0.65091789047215    0.47914744560137   -1.06807036020595
12
Properties=species:S:1:pos:R:3 0.000936562505=T 6.2.3=T gnorm:=T -21.563716048504=T pbc="F F F" energy:=T xtb:=T 830e466=T
C       1.43490773       1.42624521      -2.46485326 
C       0.04753287       0.42177682      -0.62648595 
C       0.99307534       0.31220611      -1.54528650 
O       0.96821571       2.69651859      -2.11711072 
O       1.67121272       3.15860080      -0.95848825 
O       1.69456680      -0.82887419      -1.80042880 
H       1.32146413       4.05242463      -0.85520380 
H       2.53062908       1.41585320      -2.52431025 
H       1.02837053       1.26434315      -3.46844893 
H      -0.22826298      -0.40177575       0.00921653 
H       1.39843873      -1.52670529      -1.20314583 
H      -0.47093067       1.34926672      -0.48125424 
