10
 energy: -20.529556787314 gnorm: 0.000403286317 xtb: 6.2.3 (830e466)
C         1.69710981999043    1.60207717342979   -2.35681374939035
C         1.99997627889963    1.09428683211766   -0.96670774060880
C         1.90049409075751   -0.14851030358744   -0.62448901776565
O         0.41292478470082    2.15669344930041   -2.48070123627754
O         0.35574487037242    3.38617794130377   -1.75297948213279
O         1.86375262162451   -1.27358957027500   -0.33535335061337
H        -0.56985772868253    3.63996702947527   -1.85774963514332
H         1.68210375632682    0.78475893516493   -3.08054947191043
H         2.44944946492590    2.34626125463238   -2.64502324074486
H         2.18560204108467    1.84067725843825   -0.21303307541303
10
Properties=species:S:1:pos:R:3 6.2.3=T gnorm:=T pbc="F F F" energy:=T -20.528263114866=T xtb:=T 830e466=T 0.000614799397=T
C       1.42881786       1.86960001      -2.33153441 
C       1.52983803       1.10798423      -1.23884376 
C       2.29399250      -0.12469966      -1.24269058 
O       0.77144017       3.02043000      -2.48484857 
O       0.10168306       3.45344823      -1.30916870 
O       2.43827291      -0.85713751      -0.29633605 
H      -0.28694093       4.29464167      -1.58970170 
H       2.76185929      -0.35775824      -2.22144339 
H       1.89648297       1.62577817      -3.27842422 
H       1.04185414       1.39651311      -0.32040862 
