12
 energy: -21.522099687828 gnorm: 0.000400635670 xtb: 6.2.3 (830e466)
C         1.38267740224447    0.96468209893059   -2.70866821733864
C         0.28362194348284    0.83863523806136   -1.65287263402354
C         0.91420387494356    0.90594884423133   -0.26134473870491
O         2.26329799990974    2.05391657562676   -2.40325229454149
O         1.77805072149258    2.78721832860094   -1.32004114219634
O         1.83568251076767    2.00030969456044   -0.16939151448777
H         0.14843452964236    1.03275284283971    0.51139878233461
H         2.00556358040023    0.06328198157123   -2.72809701278400
H         0.95511605518424    1.13389118699059   -3.70273771922105
H         1.49389605024928   -0.00086548912738   -0.05511249450529
H        -0.24714987510607   -0.10261461207822   -1.77706347008269
H        -0.42389479321091    1.66282330979263   -1.76852754444890
12
Properties=species:S:1:pos:R:3 6.2.3=T gnorm:=T 0.000411421781=T pbc="F F F" energy:=T xtb:=T -21.524977843532=T 830e466=T
C       1.50182768       1.12359409      -2.64680485 
C       0.63103326       1.42027509      -1.38750172 
C       0.43681543       0.23364124      -0.46122037 
O       2.61985995       1.97111355      -2.49213956 
O       2.14403970       3.04213394      -1.70984209 
O       1.39612288       2.40718068      -0.70815374 
H      -0.07143486       0.56104506       0.44138778 
H       1.87945044       0.10098536      -2.66870674 
H       0.95299370       1.35041958      -3.56732788 
H       1.40004658      -0.18685898      -0.18431176 
H      -0.16461946      -0.52376494      -0.95552755 
H      -0.33663532       1.84021532      -1.69556152 
