10
 energy: -20.588181169415 gnorm: 0.000614657230 xtb: 6.2.3 (830e466)
C         1.34616823792815    1.47291239847806   -2.98571938189101
C         0.80972563272541    0.42668247123883   -2.01885083164611
C         1.60127077741049    0.77204971545479   -0.76060269437916
O         2.63901661279892    1.79249664934999   -2.49129933882249
O         2.61515750557299    1.58909857578252   -1.09344075933148
O         1.40750302846183    0.42118179468698    0.36048385197687
H         1.49809829218125    1.11599044045977   -4.00419625174555
H         0.71503427639902    2.37129924140032   -2.99429788865209
H         1.06368658863182   -0.59335765164004   -2.31256716801732
H        -0.25965095210985    0.48904636478876   -1.83810953749164
10
Properties=species:S:1:pos:R:3 0.000762344824=T -20.535070972218=T gnorm:=T pbc="F F F" energy:=T xtb:=T 6.2.3=T 830e466=T
C       1.69923479       1.70711334      -2.32121972 
C       1.36032301       0.62062764      -1.61666595 
C       2.11940230       0.71143853      -0.37020141 
O       2.58227434       2.48962274      -1.68642579 
O       2.85625299       1.88159553      -0.46405527 
O       2.18520649       0.01081672       0.59215901 
H      -0.49554558       0.05592219      -4.78630027 
H       1.40231860       2.06848710      -3.28857128 
H       0.68775256      -0.17085234      -1.86564352 
H      -0.96120951       0.48262855      -4.33167579 
