12
 energy: -21.604377035934 gnorm: 0.000929636507 xtb: 6.2.3 (830e466)
C         1.36668398647463    1.29928051970955   -2.78252134260484
C         0.18068235558600    0.97552271007555   -1.87552472851812
C         0.94129544492837    0.82777134121448   -0.55578024285350
O         2.42475324942643    0.50847528140068   -2.29284584117177
O         1.05935987123254    2.08768687179405    0.03308895317592
O         2.18145171895695    0.28002961270614   -0.89334847910433
H         1.75835764109359    2.06169011585605    0.69625621265577
H         1.22140117709055    1.00949899830272   -3.82321714348379
H         1.61805050259117    2.36651223331580   -2.71429826961954
H         0.47706723525448    0.11521985309024    0.14448710894625
H        -0.28948427232701    0.03354019428616   -2.15156866311594
H        -0.55060891030772    1.77486226824858   -1.82032756430610
12
Properties=species:S:1:pos:R:3 6.2.3=T gnorm:=T 0.000519602495=T pbc="F F F" -21.539760886414=T energy:=T xtb:=T 830e466=T
C       1.58355349       0.80489555      -2.46787406 
C       0.63132554       0.86898956      -1.54772870 
C       1.30140693       0.54934113      -0.23577690 
O       2.78181879       0.39997815      -2.00262330 
O       1.34856697       1.69904760       0.55461966 
O       2.58788710       0.10714546      -0.61662481 
H       1.95293967       1.55644366       1.29215766 
H       1.57620145       1.00249509      -3.52320298 
H      -0.63902569       2.55321838      -3.87278898 
H       0.83277738      -0.27927798       0.32358492 
H      -0.38787816       1.17365503      -1.63309536 
H      -1.18056347       2.90415834      -4.30624714 
