10
 energy: -20.526968729510 gnorm: 0.000871662013 xtb: 6.2.3 (830e466)
C         1.95449382020969    1.86200408211875   -1.66137749699766
C         1.60317745927969    0.62032351863483   -0.89474289518166
C         1.34700369608954   -0.51437097902056   -1.46597188067708
O         0.77783554210792    2.64448639397029   -1.71053874159964
O         1.04839100797698    3.83193271726397   -2.45804319514044
O         1.17880622758937   -1.54814218922968   -1.96460107786105
H         0.19062162681752    4.27646151161602   -2.44245222664610
H         2.74808994204721    2.42068158507301   -1.14841627118589
H         2.28333009296590    1.62193533093163   -2.67961639142842
H         1.43486058491611    0.72427802864175    0.16416017671788
10
Properties=species:S:1:pos:R:3 6.2.3=T gnorm:=T pbc="F F F" 0.000918988921=T energy:=T xtb:=T 830e466=T -20.525710369352=T
C       1.45849677       2.01078889      -1.73538529 
C       1.27603581       0.79575250      -1.20542378 
C       2.07846261      -0.33688863      -1.62391977 
O       0.71719546       3.05661021      -1.35450172 
O       1.08799272       4.24051883      -2.04376345 
O       1.96985566      -1.45925314      -1.19741247 
H       0.42284401       4.87995071      -1.75260498 
H       2.20534162       2.21574475      -2.49404028 
H       2.82842576      -0.09126512      -2.40249405 
H       0.52195959       0.62763100      -0.45205420 
