12
 energy: -21.577127363802 gnorm: 0.000428907971 xtb: 6.2.3 (830e466)
C         1.87057215832762    1.40017370956661   -1.91592213567272
C         0.10972631267174   -0.05492471732449   -0.78564876239768
C         1.48047795422004    0.02777596077606   -1.38242203534109
O         0.80893424303289    2.30424993871861   -1.76197505499732
O         1.23132599657482    3.58164009965506   -2.24520027931723
O         2.24816729255868   -0.89520929598765   -1.45130494498693
H         0.41279407636833    4.09351142985191   -2.21513867218021
H         2.75763394333892    1.74945122380363   -1.36935242737295
H         2.14921010361469    1.30340793923293   -2.97443043582998
H        -0.08599025575507   -1.06057327680881   -0.42434897120347
H        -0.62389536487036    0.22728165595289   -1.53784521672477
H         0.03034353991769    0.66292533256325    0.02779893602430
12
Properties=species:S:1:pos:R:3 6.2.3=T gnorm:=T pbc="F F F" 0.000658268939=T energy:=T xtb:=T 830e466=T -21.534236268262=T
C       2.44559165       1.87538271      -1.22217952 
C      -0.55659229      -0.35524270      -1.16075458 
C       2.74953286       0.76906500      -1.85649712 
O       1.33888777       2.61758209      -1.46167155 
O       1.62703642       3.69046698      -2.41739107 
O       3.04221525      -0.25448107      -2.30505657 
H       0.78381150       4.15953670      -2.44565902 
H       3.18479995       2.26189124      -0.52356669 
H      -0.37600403      -0.74839099      -2.15296199 
H       0.03303971      -0.90938465      -0.44181854 
H      -1.60670277      -0.45641875      -0.91936139 
H      -0.27631603       0.68970343      -1.12887197 
