12
 energy: -21.577133676564 gnorm: 0.000497366999 xtb: 6.2.3 (830e466)
C         1.77787915180339    1.35679245224527   -2.08737548807339
C         0.23871584143428    0.00103069373505   -0.57426399853576
C         1.47970058217954    0.02445711046562   -1.41175645233729
O         0.78967568653602    2.29947004695040   -1.76716782952312
O         1.10176344532596    3.52329959335591   -2.43761375149634
O         2.21430562125846   -0.91527215567322   -1.56357989457705
H         0.39079413835423    4.10628621930349   -2.14094361294633
H         2.76791501474969    1.70466871946511   -1.76016215860751
H         1.82404525402171    1.19814850703986   -3.17393289562045
H         0.08821910938628   -0.98714473391969   -0.14874813741457
H        -0.61378128280584    0.28546502417189   -1.18719773638144
H         0.33007743775630    0.74259852286031    0.21684195551328
12
Properties=species:S:1:pos:R:3 gnorm:=T 6.2.3=T -21.534384552523=T 0.000676292138=T pbc="F F F" energy:=T xtb:=T 830e466=T
C       1.81186842       1.22000737      -3.24164163 
C       0.15290956       0.50957671       0.14669866 
C       2.12687833       0.11540646      -2.60943179 
O       0.84071059       2.08229155      -2.86699180 
O       1.37721905       3.12223120      -1.98217674 
O       2.42079885      -0.91033737      -2.16653411 
H       0.59556642       3.66600471      -1.82407256 
H       0.94587634       1.24441397       0.08993912 
H       2.45172535       1.49559473      -4.07846926 
H       0.58171950      -0.47454619       0.28493542 
H      -0.42163313       0.52758941      -0.77093012 
H      -0.49432925       0.74156745       0.98277482 
