12
 energy: -21.579043817585 gnorm: 0.000914634558 xtb: 6.2.3 (830e466)
C         1.90835670426730    1.49050144580279   -2.13755175150375
C         0.31843621025901   -0.04906955073329   -0.85647920178263
C         1.73102901836890    0.37376178034020   -1.10571784465949
O         0.72710072447302    2.08984904748823   -2.60005822046023
O         0.14405290756415    2.89473149056104   -1.58146722735912
O         2.69315025420474   -0.10282380374819   -0.56234027058126
H         0.00595876921680    3.74652171301435   -2.01763545528268
H         2.60473500798810    2.23707026819452   -1.73387657574645
H         2.35144265782804    1.05870431449045   -3.04033849985160
H        -0.21286795156541    0.77740768182172   -0.38583415819653
H        -0.17508444541059   -0.25494808269312   -1.80403467678733
H         0.29279014280587   -0.92190630453873   -0.21065611778895
12
Properties=species:S:1:pos:R:3 6.2.3=T gnorm:=T pbc="F F F" -21.563526490373=T 0.000949199763=T energy:=T xtb:=T 830e466=T
C       1.81673868       1.46018235      -2.11843349 
C      -0.00588565       0.04776474      -1.13068042 
C       1.26067262       0.42784811      -1.16669501 
O       0.85216257       2.25259930      -2.75516106 
O       0.20544903       3.10461570      -1.81910074 
O       2.24556063      -0.06450932      -0.36019640 
H       0.35886231       3.99208585      -2.17371576 
H       2.54572403       2.07613813      -1.57392021 
H       2.32664039       0.96679491      -2.95241351 
H      -0.35977363      -0.68822652      -0.42889041 
H      -0.72371769       0.48214555      -1.79761771 
H       1.86666672      -0.71763879       0.24083473 
