12
 energy: -21.571805899709 gnorm: 0.000779980744 xtb: 6.2.3 (830e466)
C         1.67256013624980    1.38224903901509   -2.54187591018530
C         0.67975593759486    0.34958585935290   -2.02808933045556
C         1.34364848618405   -0.05243797231275   -0.71481297920440
O         2.30737330034600    1.88465270115790   -1.37377670427947
O         2.29261941271573    0.84940271004720   -0.41205828102439
O         1.11712837155383   -0.99552261083191   -0.02451067232543
H        -0.14831234746258    3.19290656046989    0.11839956394993
H         2.41787678584611    0.92642494928889   -3.20734389431633
H         1.21934750171473    2.24686668347699   -3.02655187742056
H        -0.76328009946416    3.28627312692750   -0.34877601063110
H         0.54708400739874   -0.50990512104554   -2.67943892688948
H        -0.29651149267716    0.77939407445424   -1.79725497721831
12
Properties=species:S:1:pos:R:3 0.000693804996=T gnorm:=T pbc="F F F" -21.676941865359=T energy:=T xtb:=T 6.2.3=T 830e466=T
C       1.29348064       1.71904951      -2.38876004 
C       0.61089064       0.45505962      -1.86028687 
C       1.19556193      -0.05096775      -0.53921666 
O       1.12358671       2.82660616      -1.51939333 
O       1.63513713       0.88964392       0.29427883 
O       1.22947719      -1.21494277      -0.25919415 
H       1.58033238       1.78388182      -0.10448550 
H       2.37374306       1.56679429      -2.45803743 
H       0.91454249       1.95704723      -3.38926425 
H       0.20022131       3.10520181      -1.53221345 
H       0.68485645      -0.34798308      -2.59310587 
H      -0.45253993       0.65049922      -1.68641128 
