10
 energy: -20.588180501785 gnorm: 0.000927955642 xtb: 6.2.3 (830e466)
C         1.28845814990465    1.58789670007938   -2.91465087268980
C         0.75664393523959    0.48489102706347   -2.00996271988334
C         1.71496018989869    0.60058972554716   -0.82898115134155
O         2.65491094918850    1.72357907930763   -2.55155087281224
O         2.76587264682471    1.35557624586818   -1.19262411865512
O         1.61058366067965    0.13647435767722    0.26240179480374
H         1.28644345441081    1.34567366953597   -3.97713930194933
H         0.75874565569466    2.53493354491634   -2.74601435557677
H         0.86653588429570   -0.50999486314979   -2.44374620770410
H        -0.27355452613694    0.62208051315446   -1.69374219419147
10
Properties=species:S:1:pos:R:3 6.2.3=T gnorm:=T xtb:=T pbc="F F F" energy:=T -20.555453777777=T 830e466=T 0.000715347090=T
C       1.31469504       1.88657574      -3.00728396 
C       0.71826931       0.79608880      -2.16810877 
C       1.63761270       0.46426670      -1.26385088 
O       2.61333037       2.07461469      -2.44691906 
O       2.79143371       1.17390918      -1.35857458 
O       1.63858586      -0.43924312      -0.27673945 
H       1.42148895       1.60733689      -4.06551068 
H       0.75945373       2.83354158      -2.94264993 
H       0.79599158      -0.90737792      -0.26209766 
H      -0.26126125       0.39198747      -2.30427503 
