12
 energy: -21.604377155175 gnorm: 0.000542879935 xtb: 6.2.3 (830e466)
C         1.26104297074899    0.93843179418951   -2.80702474214388
C         0.15045907462607    0.91174716455492   -1.75825073626885
C         1.01633031283379    1.09411654588109   -0.50983452079195
O         2.34803927722847    0.27609527346911   -2.20413704636141
O         1.20346858316538    2.46109639549317   -0.29351581863035
O         2.21368887122772    0.42966509878380   -0.78022490748812
H         1.95860246017684    2.58643544120475    0.29240188216898
H         1.52823770126814    1.97505788249640   -3.05263240356021
H         1.02560625873722    0.38288688355203   -3.71488013702938
H         0.60065842586264    0.61418129796792    0.39046903356796
H        -0.56246834465252    1.72249145419869   -1.86447091040032
H        -0.35456559122274   -0.05200523179138   -1.73348969306246
12
Properties=species:S:1:pos:R:3 0.000940782664=T gnorm:=T pbc="F F F" -21.592401278848=T energy:=T xtb:=T 6.2.3=T 830e466=T
C       1.51160149       1.18903497      -2.71149591 
C       0.62952134       1.56206035      -1.50321250 
C       0.84985962       0.32221727      -0.59494681 
O       1.71420894      -0.19724942      -2.61492961 
O       1.08856916       2.77076637      -0.96461190 
O       1.84742111      -0.45128899      -1.22305889 
H       0.52208583       3.03828200      -0.23252430 
H       2.45220348       1.74841702      -2.63082681 
H       1.03946271       1.37049333      -3.67535911 
H       1.24180506       0.59840069       0.38589914 
H      -0.42879348       1.64176818      -1.78478803 
H      -0.07884526      -0.25270178      -0.48573527 
