12
 energy: -21.512695293581 gnorm: 0.000364435931 xtb: 6.2.3 (830e466)
C         1.46282146894169    1.00244178870705   -1.81087927909466
C         1.79909848154240    0.40569529228256   -0.46418772170110
C         2.99379836862638    0.04640103005973   -0.12446015744875
O         1.40810322332036    2.40585848835865   -1.80180878080597
O         0.26806097558125    2.83161670854860   -1.05048644573198
O         4.05879913561945   -0.32423979832173    0.15672302800384
H         0.37847089441120    3.79078596511770   -1.04366396198232
H         2.24684592267773    0.79350139322015   -2.54153863523780
H         0.50501047825699    0.59806930183587   -2.15986358371300
H        -2.05928177517328    0.37226673864182   -3.61512610995979
H        -1.68527449594802    1.01120232564992   -3.85209156442882
H         1.01294732214018    0.40632076589809    0.27139321209799
12
Properties=species:S:1:pos:R:3 6.2.3=T gnorm:=T 0.000604750973=T pbc="F F F" -21.539328573473=T energy:=T xtb:=T 830e466=T
C       1.15935828      -0.04727418      -2.34085896 
C       1.67273585       0.43938509      -1.01084060 
C       2.47314215      -0.23292344      -0.25176965 
O      -0.49541713       3.13957458      -2.14418574 
O       0.20802075       3.41535660      -0.94019178 
O       3.19695058      -0.82805877       0.44146190 
H      -0.05662164       4.32488676      -0.75299140 
H       1.43654279       0.64772977      -3.13401582 
H       1.58152083      -1.01972515      -2.57798002 
H       0.07290368      -0.14468938      -2.32102470 
H      -0.21949508       2.23205451      -2.33563533 
H       1.35975892       1.41360362      -0.66795790 
