12
 energy: -21.522099689794 gnorm: 0.000400692287 xtb: 6.2.3 (830e466)
C         1.42641841878679    1.03328663845761   -2.70152159024207
C         0.31082082568848    0.78909800108748   -1.68451683164062
C         0.89527371247239    0.85451277087473   -0.27289338552904
O         2.21312763268944    2.17409414148840   -2.33428634018168
O         1.64423275513543    2.83059878873875   -1.24252423643657
O         1.72929898135096    2.01010587598395   -0.11733334299560
H         0.10074733229581    0.89745141432640    0.47977615812774
H         2.11599109847211    0.18209748136174   -2.73100908623827
H         1.01540540799539    1.20435934605208   -3.70222343906711
H         1.53527970611534   -0.01353894939003   -0.07860132694467
H        -0.14382486183758   -0.18410419814698   -1.85559623567149
H        -0.45326100916456    1.56192868916586   -1.79476034318062
12
Properties=species:S:1:pos:R:3 gnorm:=T 6.2.3=T 0.000503634989=T pbc="F F F" energy:=T xtb:=T 830e466=T -21.480799067760=T
C       1.14206356       0.34672967      -2.83823916 
C       0.51038145       0.14392109      -1.69731257 
C       0.97613669       0.64486667      -0.35646236 
O       1.56980020       3.33589382      -1.90963462 
O       1.43786506       2.92038253      -0.58944626 
O       1.97854138       1.64569582      -0.39377482 
H       0.12211316       0.99934810       0.23523219 
H       2.06383970       0.90439235      -2.88107084 
H       0.76826953      -0.03946230      -3.77041252 
H       1.45723195      -0.17055480       0.19528128 
H      -0.40601455      -0.42960053      -1.65460347 
H       0.76928187       3.03827757      -2.37504685 
