12
 energy: -21.577237162147 gnorm: 0.000762025351 xtb: 6.2.3 (830e466)
C         1.71663560642207    1.26558295807374   -2.39241481384631
C         0.34799400198439    0.10594407366778   -0.54380075682673
C         1.69941275241805    0.43981943213495   -1.10161079896476
O         0.56992096631111    2.03191112600171   -2.64352236900119
O         0.45789221966935    3.07831315718337   -1.68620775214543
O         2.73675556541861    0.06908788514207   -0.61624147774516
H         0.40684484620471    3.87968450716373   -2.22572510639582
H         1.74926189415585    0.56852270686793   -3.23704710745500
H         2.62577517524438    1.88155658984724   -2.40703002193383
H         0.19522261985224   -0.96866431120695   -0.62987965569727
H        -0.44265761391732    0.63208589881943   -1.06694042172915
H         0.32605196623654    0.35607597630496    0.51451028174065
12
Properties=species:S:1:pos:R:3 6.2.3=T gnorm:=T 0.000553645057=T pbc="F F F" -21.571744492980=T energy:=T xtb:=T 830e466=T
C       1.44983723       1.50596087      -2.25627268 
C       0.33194500       0.06904715      -0.54032667 
C       1.47930555       0.47472498      -1.40295574 
O       0.33162522       2.26138661      -2.42605904 
O       0.55174177       3.61303436      -1.93149786 
O       2.55198548      -0.34669966      -1.30477293 
H      -0.05822533       4.12885185      -2.47262810 
H       3.27402843      -0.03069503      -1.86212343 
H       2.31454142       1.78084016      -2.85579560 
H      -0.10190253      -0.85821172      -0.91050767 
H      -0.42386424       0.84731003      -0.54532065 
H       0.68809198      -0.10562959       0.47235037 
