12
 energy: -21.577237907477 gnorm: 0.000671344127 xtb: 6.2.3 (830e466)
C         1.70810475068514    1.41089709995735   -2.36128519512519
C         0.08338077877753    0.04453915697530   -0.90224979677528
C         1.45649242675103    0.17515795733914   -1.49080123736987
O         0.86336135894388    2.50536867606490   -2.12878663282187
O         1.11570815426805    3.05762051623173   -0.84254865482485
O         2.33054838617135   -0.63942871718583   -1.34365256108838
H         1.31801578702598    3.98577541945971   -1.02568938065555
H         2.76633353504634    1.69255075170944   -2.27918714376637
H         1.49521911169103    1.13897290512803   -3.40091516836774
H         0.16901478273416   -0.15117176308601    0.16430255770450
H        -0.40610089635408   -0.81615916357242   -1.35493162632361
H        -0.51097817574041    0.93576716097871   -1.07004516058577
12
Properties=species:S:1:pos:R:3 6.2.3=T gnorm:=T pbc="F F F" 0.000859189739=T energy:=T -21.571746091208=T xtb:=T 830e466=T
C       1.53951633       1.63818958      -2.11021262 
C       0.05821676       0.01933312      -0.90847543 
C       1.25434115       0.38975981      -1.71932998 
O       0.72198305       2.68334263      -1.81325999 
O       1.38573795       3.60202847      -0.89749344 
O       2.00551669      -0.67174802      -2.09851324 
H       0.91732950       4.42883504      -1.06731296 
H       2.43253769       1.87073862      -2.68547020 
H       2.77836101      -0.38008975      -2.59805552 
H       0.36100731      -0.64982558      -0.10532541 
H      -0.66512574      -0.50535048      -1.53128272 
H      -0.40032170       0.91467657      -0.50105849 
