10
 energy: -20.529544047155 gnorm: 0.000662502863 xtb: 6.2.3 (830e466)
C         0.91255119206201    1.47193861855991   -2.47852712381488
C         1.48976987747661    0.52429301083206   -1.44795688368013
C         2.44088035485084    0.86777064877735   -0.63830965855132
O         0.61314302151418    2.73455528298577   -1.94648563670880
O         1.82378401066179    3.34872511366321   -1.51426478165126
O         3.28445931009926    1.13518405870948    0.11503851764253
H         1.52918417924359    3.92765938614558   -0.79887754454583
H         1.59779469776186    1.58106205555216   -3.33157791582717
H        -0.05442750870679    1.10854857760317   -2.82950008828967
H         1.07226086503664   -0.46302675282868   -1.37724888457351
10
Properties=species:S:1:pos:R:3 0.000464917296=T gnorm:=T -20.561280268129=T pbc="F F F" energy:=T xtb:=T 6.2.3=T 830e466=T
C       0.76188443       1.31551622      -2.73996182 
C       1.52730009       0.77887155      -1.56572541 
C       1.95009572       1.83067441      -0.87121224 
O       0.83041504       2.73323954      -2.58442773 
O       1.57714220       3.03287404      -1.41127621 
O       2.66726837       1.90746934       0.24868086 
H       2.79471316       2.83712662       0.47887614 
H       1.21135645       1.04466666      -3.70586560 
H      -0.29448354       1.01151005      -2.73950132 
H       1.68370807      -0.25523844      -1.35729667 
