12
 energy: -21.603439916926 gnorm: 0.000228068188 xtb: 6.2.3 (830e466)
C         1.13430563110513    1.22702881806643   -2.76755934765813
C         0.14422944914043    0.95411146602294   -1.63878993314360
C         1.13433478749490    0.80917953071941   -0.46763535994666
O         2.27149038781190    0.45944952194448   -2.44988363426193
O         1.38914218715840    2.01604166884127    0.18104920242312
O         2.28822626066519    0.25464081777969   -1.02470244280876
H         2.01191961288262    2.53522569816719   -0.34344614449525
H         1.38927959995485    2.29637698972103   -2.82048419054687
H         0.79297215844429    0.88448677350510   -3.74485559191181
H         0.77830859402353    0.12343953439947    0.30832678695724
H        -0.38522987342838    0.01666963863590   -1.79866772109502
H        -0.55999879525286    1.76296954219707   -1.46916162351233
12
Properties=species:S:1:pos:R:3 6.2.3=T gnorm:=T pbc="F F F" 0.000355741606=T -21.649368957018=T energy:=T xtb:=T 830e466=T
C       0.75455204       0.02302145      -2.92338488 
C       0.34517713       1.03215783      -1.88842778 
C       1.41682058       1.26354871      -0.81550843 
O       1.63105182      -0.78249359      -2.81021252 
O       0.76306047       1.77999622       0.31363211 
O       2.43399050       2.11372843      -1.24294620 
H       1.41217940       1.93110521       1.01057086 
H       2.05364910       2.96744126      -1.48878998 
H       0.13475691       0.07120946      -3.84131559 
H       1.91828781       0.31167235      -0.58690609 
H      -0.55241102       0.65299446      -1.39238455 
H       0.07786526       1.97523822      -2.37013694 
