10
 energy: -20.529559240802 gnorm: 0.000347590712 xtb: 6.2.3 (830e466)
C         2.15761755124841    1.92396776924410   -1.85482659332347
C         1.55468752292898    0.69103345669709   -1.22309818389193
C         1.42406439450129   -0.43467577199772   -1.84579151287875
O         1.19960953162749    2.82181270380858   -2.35342046116350
O         0.50749394368293    3.43173432572562   -1.26096033455509
O         1.36178765635904   -1.46002469553856   -2.38939939664862
H        -0.19632952811424    3.91467664777991   -1.71242222259010
H         2.79433780261872    2.43424883095101   -1.12229929804296
H         2.73931143633144    1.66775048508160   -2.74252908036055
H         1.10612968881598    0.81827624824836   -0.25255291654500
10
Properties=species:S:1:pos:R:3 6.2.3=T gnorm:=T -20.540719632420=T pbc="F F F" energy:=T xtb:=T 830e466=T 0.000641691093=T
C       3.20781101       1.00816949      -1.36509660 
C       2.03580098       1.62783902      -1.39547558 
C       0.93793851       1.08805027      -2.21499606 
O      -0.23533883       1.77205198      -2.24196988 
O      -0.29434815       2.96140676      -1.47339674 
O       0.97247323       0.08554953      -2.87444587 
H      -1.20273762       3.25516051      -1.63413423 
H       4.03347673       1.37288643      -0.77903358 
H       3.36052693       0.10774288      -1.93838502 
H       1.83310721       2.52994314      -0.84036644 
