12
 energy: -21.579054382810 gnorm: 0.000466536784 xtb: 6.2.3 (830e466)
C         1.81093550290544    1.33352348051979   -2.31686257778587
C         0.18650770715304    0.09305035675370   -0.78084539342014
C         1.57211856660521    0.18101146223963   -1.33782529731325
O         0.77917125133875    2.27878767415356   -2.40979087849167
O         0.71432182847560    3.06119419787635   -1.22107854242852
O         2.46566984248017   -0.57986284049665   -1.07139180818085
H         0.67151939123214    3.96796063071742   -1.55300700379229
H         2.77072442059303    1.80993157398715   -2.07701712252695
H         1.87417657325751    0.91818602098331   -3.32781453528505
H         0.07068344549946   -0.81361629716733   -0.19445803303572
H        -0.53751479263195    0.12359838974425   -1.59239483278771
H         0.01068626309159    0.96583535068884   -0.15331397495193
12
Properties=species:S:1:pos:R:3 0.000468648712=T gnorm:=T pbc="F F F" -21.563866782764=T energy:=T xtb:=T 6.2.3=T 830e466=T
C       1.94350125       1.17060327      -2.35140281 
C      -0.81467502       0.46898462      -0.80523888 
C       2.92221783       1.98192218      -1.53062459 
O       0.61817908       1.61484908      -2.23708138 
O       0.15836384       1.47945365      -0.89552982 
O       4.08326069       1.72016752      -1.41041261 
H       2.45160716       2.84998807      -1.03547615 
H       2.17624399       1.29002970      -3.41464026 
H       2.04574443       0.10625997      -2.09310032 
H      -0.40740910      -0.51431640      -1.06187028 
H      -1.67524175       0.68896189      -1.44188092 
H      -1.11279241       0.48269644       0.24145801 
