12
 energy: -21.539752084458 gnorm: 0.000571677030 xtb: 6.2.3 (830e466)
C         1.48187474019673    1.08205971797172   -3.66664859054614
C         0.10084318080428    0.99440259265872    0.42600310162852
C         0.98538476323065    0.11440945708478    0.75565042417351
O         0.74329237430850    1.62767662293762   -2.60530774335350
O         1.57667542297302    2.48503441407227   -1.83278437965538
O         1.80248830506742   -0.66170393146646    1.03362060952847
H         1.37847004420308    2.21088459455633   -0.91901383957069
H         1.87271676238005    1.86579829466070   -4.32048979562860
H         0.76265661543491    0.46894628265188   -4.20667359044149
H         2.30646388928956    0.46244883960288   -3.30090410980327
H        -0.43933931487058    0.91064276328224   -0.49913828440065
H        -0.18241678301764    1.77958035198692    1.09977619807019
12
Properties=species:S:1:pos:R:3 6.2.3=T gnorm:=T pbc="F F F" -21.602406565030=T energy:=T 0.000308238844=T xtb:=T 830e466=T
C       1.52922755       1.06231986      -3.63504076 
C       0.10688612       1.41252540       0.12263542 
C       1.44616643       0.78133971      -0.10795906 
O       0.97716293       1.25905238      -2.35817829 
O       1.87260135       0.71554523      -1.38881899 
O       2.17380512       0.33155454       0.72888603 
H       0.11942351       2.43522163      -0.24852837 
H       2.48633036       1.57910998      -3.73902140 
H       0.79216138       1.49908099      -4.30643834 
H       1.65597589      -0.00073243      -3.85439939 
H      -0.65269731       0.86658945      -0.43307194 
H      -0.11793333       1.39857325       1.18402509 
