12
 energy: -21.539593463301 gnorm: 0.000588825463 xtb: 6.2.3 (830e466)
C         1.63846577223427    1.11011707905973   -3.18414047479367
C         0.21161983597085    0.33272479021453    0.30529689674038
C         1.48783333791576    0.19960946161564    0.41552494683555
O         1.57915005389468    2.26887145748409   -2.39819493743672
O         0.21526817364501    2.56755707538834   -2.09212732810351
O         2.64216258588010    0.08167053340101    0.50306915395790
H         0.24006813445407    3.52216469146555   -1.94632994905394
H         2.70301504019542    0.96811943267117   -3.35983432497809
H         1.11298040371835    1.24578516822714   -4.13429753476342
H         1.22885190445943    0.24617252444489   -2.65384934793335
H        -0.20094882275615    1.03595271696308   -0.39403720795784
H        -0.46937641961124   -0.23884493093552    0.90323010748561
12
Properties=species:S:1:pos:R:3 6.2.3=T gnorm:=T pbc="F F F" energy:=T xtb:=T 830e466=T 0.000975321674=T -21.600519633257=T
C       1.17357531       0.14582596      -2.54422175 
C       0.67059712       0.41485748      -1.12305275 
C       1.59456021       1.37997076      -0.43534411 
O       1.44228758       2.69939273      -0.70330124 
O       0.38452546       3.03999880      -1.58281166 
O       2.48005789       1.09792500       0.31858886 
H       0.42966781       4.00759278      -1.58094618 
H       2.18431346      -0.25444384      -2.51685623 
H       1.17281603       1.06180099      -3.12971911 
H       0.52460889      -0.57658349      -3.03205148 
H      -0.33571733       0.83360401      -1.15955876 
H       0.66779757      -0.51004120      -0.54641559 
