12
 energy: -21.538848804028 gnorm: 0.000246466228 xtb: 6.2.3 (830e466)
C         1.47261625648885    0.93834290753215   -3.47943628952748
C         0.33275058043726    0.14887691968568    0.69026448936530
C         1.19480348037224    1.09294604058792    0.54479968969925
O         1.20826669729778    2.31082626014986   -3.34582359954783
O         0.50468118519417    2.56302417763992   -2.14161357601806
O         1.97826960556189    1.94164803422237    0.40064081649373
H         1.13659649792909    3.05357819504204   -1.59427937672246
H         2.11717116240924    0.57144417043107   -2.67345740933851
H         1.98897765267265    0.85996723341381   -4.43431809098592
H         0.54840907460918    0.35477965669768   -3.50614080013749
H        -0.41133105498988   -0.02590990862134   -0.06165595394252
H         0.31790886201775   -0.46962368677909    1.56522010065218
12
Properties=species:S:1:pos:R:3 0.000311305774=T 6.2.3=T gnorm:=T pbc="F F F" energy:=T -21.574401791501=T xtb:=T 830e466=T
C       1.47787873       0.96439974      -3.44919058 
C       0.27746715       0.41447699       0.44430801 
C       0.76114662       1.32638815      -0.38773910 
O       1.04655764       2.00102400      -2.60053884 
O       0.15026480       1.49632227      -1.61093855 
O       1.79503716       2.13783920      -0.10721779 
H       1.95508637       2.70379068      -0.87970672 
H       2.04770587       0.20787239      -2.90034658 
H       2.11969868       1.46554840      -4.17227465 
H       0.63328411       0.49599971      -3.95902738 
H      -0.54113888      -0.20896102       0.14776898 
H       0.66613173       0.33519949       1.43910320 
