7
 energy: -12.217430448252 gnorm: 0.000288324319 xtb: 6.2.3 (830e466)
C         1.47536954000237    1.19107195443751   -2.76762594416340
O         1.10659833850732    2.48187583505677   -3.16725399831927
O         0.59454608439397    3.18648934197780   -2.03252663025427
H         0.42026456908290    4.06180531189215   -2.40027379158700
H         2.27336861934765    1.21926148666208   -2.02000281068431
H         1.83257066195709    0.72066872047300   -3.68181807334406
H         0.61849218670870    0.64033734950068   -2.36959875164768
7
Properties=species:S:1:pos:R:3 -12.252339138520=T 6.2.3=T gnorm:=T pbc="F F F" 0.000670661728=T energy:=T xtb:=T 830e466=T
C       1.27461834       0.76903130      -3.53515959 
O       1.68784374       1.88804066      -3.61903118 
O       0.85642668       3.27349111      -1.18269703 
H       1.19300126       2.96286697      -2.03300670 
H       1.17038384       4.17354398      -1.07883584 
H       1.44198494       0.01836538      -4.32295455 
H       0.69695118       0.41617059      -2.66741511 
