12
 energy: -21.541652327100 gnorm: 0.000511039315 xtb: 6.2.3 (830e466)
C         1.42545757000832    0.86275144577599   -3.19816841113797
C         0.06132889528085    0.24170798411430    0.33091368244819
C         1.04963682524245    1.05996060667011    0.24290251586063
O         0.68989608472491    1.75585005458459   -2.39647801601664
O         1.35600879027545    2.99684022346995   -2.30814769170769
O         1.95962998720920    1.78864194140105    0.18912012780273
H         1.80783504481300    2.97255271442733   -1.44487645159244
H         2.39808002597701    0.63176113141986   -2.75042445864437
H         1.56927454618028    1.26182068706266   -4.20526851330507
H         0.81212839773472   -0.03537627306263   -3.23737030180196
H        -0.62715814336862    0.12805198347360   -0.48255509869257
H        -0.11280802407715   -0.32466249933673    1.22466261678610
12
Properties=species:S:1:pos:R:3 -21.563506332521=T 6.2.3=T 0.000474183732=T pbc="F F F" energy:=T xtb:=T 830e466=T gnorm:=T
C       1.42113477       0.64346911      -3.16658801 
C       0.03972378       0.47821751       0.15301300 
C       0.74181431       0.87184937      -0.90676703 
O       0.45969856       0.42424561      -2.14806278 
O       1.68109619       2.95227300      -1.41380417 
O       1.81658975       1.69804881      -0.72170558 
H       1.73546778       3.60276273      -0.70040459 
H       2.40455633       0.27575741      -2.86236857 
H       1.49535375       1.70352842      -3.41987024 
H       1.06456194       0.08147153      -4.02677371 
H      -0.71750273      -0.27384013       0.05355888 
H       0.24681558       0.88211665       1.12408281 
