12
 energy: -21.541149378491 gnorm: 0.000603829808 xtb: 6.2.3 (830e466)
C         1.16474916512026    1.36814941862208   -3.68826556620814
C        -0.32683307503891    1.17976277904146    0.75288692710598
C         0.92244639734644    0.89436588391553    0.64487802732377
O         1.51213312217593    1.30802642326284   -2.33240747299183
O         2.77745084728759    0.65387785707700   -2.21447465395273
O         2.05539934565756    0.63851772651259    0.55549398593663
H         2.84091598499171    0.50943765467458   -1.25575411232740
H         1.91523263064872    1.91685336765937   -4.26407829526801
H         0.21689722749973    1.90328286199024   -3.70233952705598
H         1.03963086927091    0.36678511794601   -4.11079637513417
H        -0.95711347247183    0.68133354202752    1.46235361679673
H        -0.77171904248925    1.91960736727111    0.11672344577562
12
Properties=species:S:1:pos:R:3 6.2.3=T gnorm:=T pbc="F F F" energy:=T xtb:=T -21.563689255360=T 0.000658346509=T 830e466=T
C       1.07363302       1.39103426      -3.67921979 
C       0.44319345       0.79089970      -0.25493592 
C       1.75094166       1.07339399       0.45074647 
O       1.02429830       1.67048306      -2.30838773 
O       0.59224000       0.48625919      -1.60971203 
O       1.85050505       1.36035238       1.60743506 
H       2.62945436       0.99237380      -0.21522277 
H       1.78530417       0.58983929      -3.89739297 
H       1.41146234       2.32351715      -4.12758688 
H       0.08748751       1.12236103      -4.06822203 
H      -0.02123130      -0.10194024       0.17593594 
H      -0.23809856       1.64142641      -0.10921734 
