12
 energy: -21.539746205084 gnorm: 0.000632583789 xtb: 6.2.3 (830e466)
C         1.66517102984294    1.24750876281380   -3.16932885491817
C         0.10875833084731    0.35510212688657    0.36204418995703
C         1.18823346943015   -0.33799148585129    0.26989068740257
O         0.53385198849716    2.02324538845938   -2.86012218334813
O         0.77505583978064    2.82892847153245   -1.71856618452005
O         2.17451027738849   -0.95015944610008    0.16461480066255
H         0.83699756593899    3.73071013820398   -2.06509160151613
H         2.51815760688388    1.87374681559701   -3.45078706255536
H         1.94387814385876    0.59549788276009   -2.33834344442925
H         1.34548467411312    0.64941403165609   -4.02034629902822
H         0.03041500934929    1.29629013994571   -0.14936090499474
H        -0.73149393593071    0.02739717409634    0.93959685728591
12
Properties=species:S:1:pos:R:3 6.2.3=T gnorm:=T -21.540749512292=T pbc="F F F" energy:=T xtb:=T 830e466=T 0.000371763762=T
C       2.05844817       0.40413923      -2.57377828 
C       1.76616066       0.72533031      -1.13006889 
C       1.47706882      -0.15630622      -0.22878187 
O      -0.98415309       2.07716194      -1.45813713 
O      -0.20127654       3.21190448      -1.11210131 
O       1.17993236      -0.94006165       0.58036285 
H      -0.85763679       3.91992670      -1.12321941 
H       3.10710511       0.59745053      -2.79704169 
H       1.84375186      -0.63911207      -2.78774854 
H       1.45307277       1.03086619      -3.22637255 
H       1.88509794       1.75331588      -0.82155411 
H      -0.33855126       1.35507468      -1.35735908 
