12
 energy: -21.539312809970 gnorm: 0.000611791210 xtb: 6.2.3 (830e466)
C         1.36165143036811    1.43998609373587   -3.03302971987819
C         0.20983764006659    0.02213302344070    0.14367263588723
C         1.22897820689586   -0.72406431177011   -0.10214411903166
O         0.68138485898431    2.31338459523457   -2.16891293224935
O         1.59614637218775    3.27297619811129   -1.64384762309574
O         2.15242454920534   -1.39178548082912   -0.34092011095048
H         1.07526453586014    4.08671591342456   -1.62494797334750
H         1.76981065904329    1.97289094724815   -3.89654603944685
H         2.16419147321202    0.91277580884463   -2.51051252522558
H         0.59727110002736    0.73387188582109   -3.35184586972646
H        -0.52295448367628   -0.24597708659111    0.87753613426574
H         0.07511365782498    0.94706241332957   -0.38440185720141
12
Properties=species:S:1:pos:R:3 -21.559436460715=T 6.2.3=T gnorm:=T pbc="F F F" 0.000517878482=T energy:=T xtb:=T 830e466=T
C       1.08994441       1.16302475      -2.52493448 
C       0.29614001       0.51870383      -0.24357653 
C       1.13298248       0.33809584      -1.25446180 
O       0.51232528       2.43020472      -2.37037813 
O       1.37994725       3.26038183      -1.60392353 
O       2.07983961      -0.64386507      -1.21314539 
H       0.77849169       3.71064369      -0.99646935 
H       2.10303145       1.26443694      -2.94484792 
H       2.68333706      -0.56636769      -1.96055776 
H       0.44452756       0.68406025      -3.27044268 
H       0.36155509      -0.08454702       0.64164928 
H      -0.47300189       1.26519793      -0.29481172 
