12
 energy: -21.539746205084 gnorm: 0.000632583789 xtb: 6.2.3 (830e466)
C         1.66517102984294    1.24750876281380   -3.16932885491817
C         0.10875833084731    0.35510212688657    0.36204418995703
C         1.18823346943015   -0.33799148585129    0.26989068740257
O         0.53385198849716    2.02324538845938   -2.86012218334813
O         0.77505583978064    2.82892847153245   -1.71856618452005
O         2.17451027738849   -0.95015944610008    0.16461480066255
H         0.83699756593899    3.73071013820398   -2.06509160151613
H         2.51815760688388    1.87374681559701   -3.45078706255536
H         1.94387814385876    0.59549788276009   -2.33834344442925
H         1.34548467411312    0.64941403165609   -4.02034629902822
H         0.03041500934929    1.29629013994571   -0.14936090499474
H        -0.73149393593071    0.02739717409634    0.93959685728591
12
Properties=species:S:1:pos:R:3 6.2.3=T gnorm:=T pbc="F F F" -21.540668302451=T energy:=T xtb:=T 830e466=T 0.000691379898=T
C       1.43741469       0.27021141      -2.55893427 
C       0.75984289       0.03116434      -1.23161741 
C       1.38057829      -0.36313953      -0.16651261 
O       0.67670969       3.08682874      -0.56103336 
O       0.49615870       3.40874120      -1.93455714 
O       1.94838633      -0.67689903       0.80075416 
H       0.36767074       4.36472894      -1.90146804 
H       1.19367324       1.26546342      -2.92703299 
H       2.51588847       0.18334231      -2.45919309 
H       1.09373647      -0.45894603      -3.29186281 
H       0.83513603       2.12611069      -0.59500515 
H      -0.31617555       0.10208356      -1.20933730 
