12
 energy: -21.640690249680 gnorm: 0.000558770840 xtb: 6.2.3 (830e466)
C         1.92788256418651    2.01897439255473   -2.14306614806042
C        -0.03372251817591    0.76169031617992   -1.84515640603819
C         0.33523354337843    0.00065720830921   -0.59008615994544
O         0.54871245643721    2.04599235985844   -1.90513758659586
O         2.65812768833241    1.46583645309476   -1.09809427923365
O         0.43979405963261   -1.18857663139729   -0.51929364137594
H         2.56986789464614    2.01736704988320   -0.31088721573910
H         2.20448324730581    3.06446881013591   -2.33375050000759
H         2.16250338136848    1.40280445729290   -3.02265803498696
H         0.46932482281994    0.65637636300715    0.29082176074098
H         0.22349652393894    0.16705900980175   -2.73211008632437
H        -1.11670366387067    0.92726021127933   -1.82657170243334
12
Properties=species:S:1:pos:R:3 6.2.3=T gnorm:=T pbc="F F F" -21.645708562688=T energy:=T 0.000250218914=T 830e466=T xtb:=T
C       1.89315432       1.76861245      -2.35242067 
C      -0.06156737       0.69818419      -2.01805731 
C       1.08767228      -0.10352835      -1.40873316 
O       0.51031542       1.95885005      -2.28290854 
O       2.20658798       0.60916671      -1.61667563 
O       1.04701803      -1.15698998      -0.85753297 
H       1.36953336       1.81519594       1.13035316 
H       2.40030496       2.63312902      -1.91193651 
H       2.23146052       1.62501601      -3.39469777 
H       1.00917846       2.47803242       0.93996664 
H      -0.40758577       0.20206990      -2.93661427 
H      -0.89707218       0.81217163      -1.32673298 
