12
 energy: -21.640525370236 gnorm: 0.000666893633 xtb: 6.2.3 (830e466)
C         1.40865774669213    2.01556536637391   -2.46855141061456
C         0.39534997707607    0.63595329460858   -0.84359739075169
C         1.21403114953747   -0.63276498150123   -0.85448903829919
O         0.29697579006279    1.23641589685200   -2.11896718894953
O         1.52818155880239    3.16192950609665   -1.69129047575395
O         1.54581256470088   -1.24159575692989    0.12105951572251
H         0.73251230615161    3.69923962374488   -1.79170888161749
H         2.34954516075647    1.46576933480945   -2.33206416743924
H         1.26671933793804    2.25203883270512   -3.53217206599358
H         1.47265496019270   -0.97247634881205   -1.87650111996885
H        -0.62626635833452    0.38101166620375   -0.54156666308707
H         0.80481580642402    1.33890356584877   -0.10583111324734
12
Properties=species:S:1:pos:R:3 6.2.3=T gnorm:=T pbc="F F F" -21.621141927489=T 0.000308823533=T energy:=T xtb:=T 830e466=T
C       1.64725719       1.94644970      -2.68772746 
C       0.33225214       0.28067577      -0.04505166 
C       1.23912818      -0.63428966      -0.10762087 
O       0.60643938       1.12069705      -3.09394168 
O       1.25055150       2.86607623      -1.71002287 
O       2.06278107      -1.44851952      -0.19703830 
H       0.55569608       3.42808035      -2.07462074 
H       2.47236574       1.37806087      -2.23721229 
H       2.00330388       2.45372716      -3.59376671 
H       0.31312561       0.58999074      -2.33597141 
H      -0.69984789       0.03821010       0.11477370 
H       0.60593712       1.32083120      -0.06747971 
