12
 energy: -21.638944985779 gnorm: 0.000662598816 xtb: 6.2.3 (830e466)
C         1.59931664716041    2.16184698007507   -2.17882850750961
C         0.24722893059539    0.49711428428401   -1.19179754712628
C         1.19223534181897   -0.67230757270767   -1.04932834784359
O         0.49001991561421    1.31438371303547   -2.31344692499615
O         1.38285691904578    3.17443740079662   -1.24553834897607
O         2.13257262396398   -0.91227799325376   -1.74705001776837
H         0.63823414383590    3.71666048490042   -1.53468289892233
H         2.48821739554922    1.62044577692594   -1.83682768068634
H         1.77290021395045    2.56190779946395   -3.18642402610968
H         0.92466478322368   -1.31642954947952   -0.18582962392203
H        -0.77025839288580    0.11030032011661   -1.30529313987351
H         0.29113147812780    1.08401835584279   -0.26076293626612
12
Properties=species:S:1:pos:R:3 6.2.3=T gnorm:=T -21.578946096845=T pbc="F F F" energy:=T xtb:=T 830e466=T 0.000903592243=T
C       1.83700196       2.66013595      -2.28497656 
C       1.24212681       0.54305232      -1.48191656 
C       1.63001740      -0.69522771      -1.56426370 
O       1.23005538       1.42671867      -2.55991469 
O       1.14803885       3.40461185      -1.33560487 
O       1.87925805      -1.83233209      -1.58527343 
H       0.24864414       3.56541275      -1.64778861 
H       2.85244161       2.53233013      -1.88655140 
H       1.87943172       3.16899875      -3.25857375 
H      -0.94818071      -1.08577803      -0.16215330 
H      -1.57685537      -1.29507659       0.24546123 
H       0.96714015       0.94725399      -0.51425437 
