12
 energy: -21.638019184690 gnorm: 0.000857085955 xtb: 6.2.3 (830e466)
C         1.69638923154702    2.32021456215095   -1.78792645939416
C        -0.01033211984021    0.97190844159412   -0.94814187069730
C         0.67349433224861   -0.34234292037859   -1.31403118261675
O         0.33862473837704    2.00351986592341   -1.85153115182823
O         2.52121334471041    1.23091620442370   -2.04953463631193
O         0.55094013834528   -0.89048203303338   -2.37190763313898
H         2.36599414512444    0.91274187242711   -2.94902361294671
H         1.97522633570091    2.66042020727956   -0.77811269788120
H         1.83734952044155    3.13558209429910   -2.50973341599129
H         1.28862024994386   -0.77648695559304   -0.50491403246304
H        -1.09198679553548    0.85109245063866   -1.05014219638128
H         0.24384687893659    1.26291621026848    0.07931888965096
12
Properties=species:S:1:pos:R:3 6.2.3=T gnorm:=T pbc="F F F" 0.000926271811=T energy:=T xtb:=T 830e466=T -21.677635782613=T
C       1.73492631       2.38297345      -1.56343931 
C       0.04331197       1.04552368      -1.04122391 
C       1.25664672       0.15124640      -1.39055581 
O       0.35439665       2.25792137      -1.69284177 
O       2.28859416       1.08622559      -1.61991788 
O       1.04516831      -0.65285694      -2.49685457 
H       0.92539859      -0.09118277      -3.27524792 
H       2.00447957       2.84408478      -0.59420584 
H       2.12211194       2.99299766      -2.38496693 
H       1.53893545      -0.52719076      -0.57899806 
H      -0.89209946       0.65884053      -1.44127700 
H      -0.03249020       1.19141700       0.04384898 
