12
 energy: -21.638946174718 gnorm: 0.000414546766 xtb: 6.2.3 (830e466)
C         1.73822711744211    2.11140258868970   -2.12499498777981
C         0.18951857020760    0.52667237181291   -1.30905815466113
C         1.06512658279535   -0.64137348852955   -0.92231077634523
O         0.65464019815204    1.26901301908458   -2.41314958583535
O         1.37800953789300    3.17650028780124   -1.30089162284195
O         2.11634091826087   -0.93175126300916   -1.41174965851128
H         0.70913750856304    3.71006195085199   -1.74756621865401
H         2.54030674879039    1.58115621686050   -1.60003950281949
H         2.09821128391414    2.45297204592420   -3.10436085670658
H         0.62295730291434   -1.23147777012452   -0.09250345777436
H        -0.79834170556856    0.14584335473057   -1.58603625185452
H         0.07497593663566    1.17097068590756   -0.42313892621633
12
Properties=species:S:1:pos:R:3 6.2.3=T gnorm:=T pbc="F F F" -21.588046047991=T energy:=T xtb:=T 830e466=T 0.000648568019=T
C       2.35640492       2.51279864      -1.80846375 
C       0.05214440       0.66959347      -1.27486343 
C       0.93996376      -0.51632051      -0.99016649 
O       0.40821263       1.28245341      -2.48869469 
O       1.90922953       2.91055570      -0.76699982 
O       1.88382183      -0.86335105      -1.63220303 
H      -0.17498393       2.03391018      -2.64596974 
H       2.93703222       1.58413555      -1.89300787 
H       2.27230020       3.08666587      -2.74529052 
H       0.61901644      -1.05374711      -0.07474876 
H      -0.99165085       0.32570276      -1.28558326 
H       0.17761883       1.36759309      -0.42980862 
