12
 energy: -21.638946521605 gnorm: 0.000190029151 xtb: 6.2.3 (830e466)
C         1.82732260355913    2.02375555592897   -2.15128837377853
C         0.13934463311340    0.61279469890860   -1.29497074777388
C         0.90297645510980   -0.61962035159506   -0.87178715120897
O         0.67101649193999    1.27650494774814   -2.41840784480903
O         1.56642111278281    3.14091097663248   -1.35942860697155
O         1.91981683897353   -1.02343338161805   -1.35344587873163
H         0.95142373976519    3.72179564102074   -1.82413155873177
H         2.57701299364518    1.43745649405729   -1.60870135094767
H         2.21774974622881    2.30203380960415   -3.13895991478944
H         0.41081919205031   -1.13871770071136   -0.02291274122577
H        -0.87941135308965    0.31632840965624   -1.56345468618820
H         0.08449754592148    1.29019090036791   -0.42831114484356
12
Properties=species:S:1:pos:R:3 -21.588052986547=T 6.2.3=T 0.000627316554=T pbc="F F F" energy:=T xtb:=T 830e466=T gnorm:=T
C       1.97589474       1.73747368      -3.09212182 
C       0.22437373       1.03908296      -0.76292892 
C       0.93943890      -0.26091408      -0.48951460 
O       0.91972504       1.46362410      -3.59391438 
O       1.13950702       2.10059924      -0.87106845 
O       2.12084263      -0.42651680      -0.46374461 
H       0.65636890       2.91856843      -1.03498983 
H       2.65475229       0.97991995      -2.67840235 
H       2.36827309       2.76675649      -3.06742489 
H       0.22317393      -1.08972607      -0.31658750 
H      -0.32965139       0.89981077      -1.70716031 
H      -0.50370886       1.21132134       0.04205766 
