12
 energy: -21.632645868122 gnorm: 0.000474279445 xtb: 6.2.3 (830e466)
C         1.85077012954357    2.11069958590851   -1.90213468295358
C         0.27970256063542    0.38950067440857   -1.56066119626453
C         1.05439759500764   -0.59967471823544   -0.72700033810902
O         1.05077791508097    1.13359341011789   -2.47829174414858
O         1.04252257109499    3.06822876502621   -1.25205588667012
O         2.24043150176089   -0.75866331243392   -0.72654643964007
H         1.55812014569060    3.86333291761037   -1.09401735593287
H         2.56495968623640    1.67518205321179   -1.18160789607192
H         2.40128160824553    2.55655226953369   -2.74045993579428
H         0.38725363976724   -1.19469847444680   -0.06873414473160
H        -0.45563663587983   -0.15709478999009   -2.15878246103726
H        -0.26407071718320    1.05882161928912   -0.87820791864621
12
Properties=species:S:1:pos:R:3 6.2.3=T gnorm:=T pbc="F F F" energy:=T 0.000424791103=T xtb:=T 830e466=T -21.540903338917=T
C       1.08509918       2.34566597      -1.83055870 
C       0.06998806       0.15947613      -1.72925822 
C       0.83288647      -0.11971773      -0.45251000 
O       0.48044194       1.39568609      -2.40154753 
O       1.31157889       2.13521987      -0.52107205 
O       1.91199882      -0.64807790      -0.42450186 
H       1.83088047       2.84896191      -0.13057200 
H       3.69998990       2.60510741      -2.97779847 
H       2.93366160       2.65355592      -2.76602773 
H       0.28617626       0.13784485       0.47224228 
H       0.26939277      -0.62352892      -2.46410541 
H      -1.00158437       0.25558638      -1.54279030 
