12
 energy: -21.638943153723 gnorm: 0.000348524354 xtb: 6.2.3 (830e466)
C         1.62911954980154    2.06671568837421   -2.28659972108702
C         0.23339120436997    0.51947068778489   -1.17489919688406
C         1.19944752579228   -0.56747494438668   -0.76799270100477
O         0.55378935966030    1.17078570494699   -2.38258503128573
O         1.32049457853181    3.18713703374635   -1.51707853374000
O         2.20868416674902   -0.86778660254047   -1.33415073533752
H         0.58884268842087    3.66285644386179   -1.92939975727088
H         2.50339393855688    1.60652542031418   -1.81355774263854
H         1.86627644691876    2.33312566603720   -3.32477705599875
H         0.87228188727849   -1.08425941406834    0.15868265920203
H        -0.75495837669483    0.07205790315627   -1.31837230443467
H         0.16834703061490    1.24083641277361   -0.34496987952013
12
Properties=species:S:1:pos:R:3 6.2.3=T gnorm:=T pbc="F F F" -21.565471937980=T energy:=T 0.000812403458=T xtb:=T 830e466=T
C       2.04457775       2.08848369      -2.57398907 
C      -0.39799378       0.19653607      -0.56630059 
C       0.85865190      -0.20388731      -0.59510737 
O       1.37878276       0.86103986      -2.61184618 
O       1.60510884       2.94616217      -1.57778934 
O       1.80277653       0.01808754      -1.54349219 
H       0.65044126       3.07161189      -1.65004856 
H       3.11898383       1.95188880      -2.40841531 
H       1.86161510       2.48827762      -3.58347402 
H       1.32492496      -0.79876975       0.17870333 
H      -0.82588287       0.77799465      -1.36361458 
H      -1.03287628      -0.05743522       0.25967387 
