12
 energy: -21.638945525407 gnorm: 0.000387812875 xtb: 6.2.3 (830e466)
C         1.70169494691867    2.09600438023641   -2.18648865543762
C         0.20665192987794    0.52402813530617   -1.25505800520859
C         1.11002573411456   -0.61871656114941   -0.85649994627865
O         0.62233031125004    1.22725605786663   -2.40351067957624
O         1.35129806513314    3.19084951925246   -1.39796549920114
O         2.14423403860749   -0.91844097942420   -1.37554899210090
H         0.66142584569273    3.69563325568331   -1.84612115123787
H         2.52760449282850    1.59984494106146   -1.66493665956224
H         2.02624710468421    2.39969772798159   -3.19042837940331
H         0.70712553472380   -1.17909600293187    0.01270226230039
H        -0.78582564378540    0.12161643378462   -1.48042793075196
H         0.11637763995431    1.20141309233282   -0.39133636354190
12
Properties=species:S:1:pos:R:3 -21.606000527841=T 6.2.3=T gnorm:=T pbc="F F F" 0.000583541448=T energy:=T xtb:=T 830e466=T
C       1.92398708       1.90163047      -1.24434082 
C       0.19517906       0.35616144      -1.03262889 
C       0.94391355      -0.91085203      -0.67307513 
O       0.97334043       1.20834081      -1.85934142 
O       2.11713935       1.94003215      -0.06702072 
O       2.05160656      -1.17287783      -1.02710474 
H       0.84647221       4.09103053      -3.88305859 
H       2.49222634       2.46517056      -2.00022388 
H       1.28314362       4.06551475      -4.52590527 
H       0.34567800      -1.58355123      -0.02936483 
H      -0.70932188       0.10829255      -1.59264596 
H      -0.07417432       0.87119782      -0.10090975 
