12
 energy: -21.636409333373 gnorm: 0.000711684760 xtb: 6.2.3 (830e466)
C         1.64632560575807    2.26053298204571   -2.40862668732889
C         1.12919500179255    0.40220047654397   -1.07057803025538
C         0.09864447143959   -0.66939556614768   -0.83054065036292
O         0.87344297834990    1.10635867775437   -2.26327943267181
O         1.34379521744450    3.24037606597212   -1.46722354780270
O        -0.88465805863531   -0.87211836751421   -1.47412289399212
H         0.41556697780874    3.48861284696720   -1.56154928544246
H         2.71736708143971    2.04516240436622   -2.27928431669237
H         1.45680573808860    2.60318153401067   -3.43461215322833
H         0.35502675452609   -1.28108848414421    0.05982476903411
H         2.12615356286667   -0.06732033308792   -1.10128780847607
H         1.11143466912089    1.08357776323370   -0.20460996278102
12
Properties=species:S:1:pos:R:3 0.000979337025=T 6.2.3=T gnorm:=T pbc="F F F" -21.643058023233=T energy:=T xtb:=T 830e466=T
C       1.77436750       2.35919017      -2.25634704 
C       1.10045419       0.60427003      -0.84506379 
C       0.50028776      -0.55407745      -0.60322550 
O       1.09275492       1.14790061      -2.12706986 
O       1.19088085       3.39937455      -1.54525911 
O      -0.14723425      -1.30060051      -1.53378591 
H       0.27358244       3.50560738      -1.82394656 
H       2.80318403       2.28141565      -1.87871873 
H       1.79070997       2.55786163      -3.33862450 
H       0.48688703      -0.99429457       0.37901172 
H      -0.07527585      -0.84332217      -2.38215971 
H       1.59850141       1.17675469      -0.08070101 
