12
 energy: -21.638945767440 gnorm: 0.000601863097 xtb: 6.2.3 (830e466)
C         1.67082019762614    2.07804899988700   -2.23860411222063
C         0.21252943875933    0.53855970115958   -1.19975497208370
C         1.12842219482625   -0.60832449970212   -0.84501283730133
O         0.56290563450534    1.22865955991677   -2.37708674128501
O         1.39583032804208    3.18180328105825   -1.43341763651585
O         2.12113311574195   -0.92917930780418   -1.42840899911859
H         0.68373167927860    3.69564806538666   -1.83404246738941
H         2.52107970765894    1.56847583131966   -1.77291945764463
H         1.93053151088572    2.37177312862485   -3.26400287979280
H         0.77924940983806   -1.15058372143106    0.05863604239872
H        -0.79426489862959    0.14085534951593   -1.36297549380822
H         0.17705168146720    1.22385361206871   -0.33821044523858
12
Properties=species:S:1:pos:R:3 6.2.3=T gnorm:=T 0.000512065714=T pbc="F F F" energy:=T -21.599077366949=T xtb:=T 830e466=T
C       1.66294683       1.92251015      -2.58626939 
C      -0.02716511       0.88665325      -1.40788221 
C       1.03724058       0.49236659      -0.37606907 
O       0.37482998       2.07530916      -2.06564618 
O       2.60869350       1.64233572      -1.60255655 
O       2.29251567       0.38518290      -1.01355874 
H       1.08256535       1.24063935       0.42510715 
H       1.96414280       2.88251211      -3.01012406 
H       1.66943011       1.13151419      -3.36016304 
H       0.85135976      -0.49823675       0.03957364 
H      -0.14376622       0.07828946      -2.14528895 
H      -0.98377324       1.10051386      -0.93292260 
