12
 energy: -21.533934743575 gnorm: 0.000550797126 xtb: 6.2.3 (830e466)
C         0.33929736723590    1.20606750640394   -3.07928857734700
C        -0.08042070992246    0.19356197790922   -2.34924456559537
C         1.79466767406304    0.68201956162710    0.07322880726859
O         2.50821110794797    1.59651054714412   -0.59404148852633
O         1.86780497986172    2.85344465445865   -0.63698687375189
O         2.18691751922446   -0.42987484635520    0.21206352588484
H         2.40787506301802    3.34730044346500   -1.27249701378140
H        -0.18833155022198    2.14578149593966   -3.11116356366608
H         1.23362327392804    1.14317352071336   -3.67769404768940
H         0.84739530271484    1.09217648193481    0.46522192600397
H         0.44693509246788   -0.74541822435111   -2.31467329139515
H        -0.97476512031737    0.25524688111048   -1.75072483740446
12
Properties=species:S:1:pos:R:3 -21.520524414745=T 6.2.3=T gnorm:=T 0.000848953803=T pbc="F F F" energy:=T xtb:=T 830e466=T
C       0.59650912       1.08302133      -2.96680512 
C       1.39586352       0.28717861      -2.27313535 
C       1.81410096       0.51274388      -0.87602781 
O       2.13819143       1.75876367      -0.45161956 
O       2.15485639       2.79521238      -1.41436708 
O       1.89388400      -0.35279025      -0.04803904 
H       2.75530601       3.43819069      -1.00752566 
H       0.21922139       2.00958174      -2.56873603 
H       0.28322476       0.82220435      -3.96434348 
H      -1.00169772       0.58811914       0.19327139 
H       1.72814964      -0.66541127      -2.66318956 
H      -1.58839950       1.06317573       0.00471729 
