12
 energy: -21.533928269236 gnorm: 0.000334653817 xtb: 6.2.3 (830e466)
C         0.79205505656644    0.82926532494894   -3.15466062446337
C        -0.31578396461585    0.84502099861974   -2.44239698421196
C         2.04730019571547    0.48865476197119   -0.29642799426869
O         2.29298156878585    1.80138013706875   -0.39037787253233
O         1.21733056772020    2.58510467670915    0.08061444617532
O         2.84610606209003   -0.31790573573629   -0.64347437462680
H         1.49810828725097    3.48656248963094   -0.13856356384118
H         1.28223886505797    1.73564267458394   -3.47103940338827
H         1.26644062169818   -0.09089357759213   -3.45301392025904
H         1.05619123058877    0.27739975482711    0.14125211541152
H        -0.80396513143527   -0.06416102156486   -2.13109315951243
H        -0.78990335942253    1.76392951653353   -2.13672866448253
12
Properties=species:S:1:pos:R:3 6.2.3=T gnorm:=T pbc="F F F" 0.000247253396=T energy:=T xtb:=T -21.600515838407=T 830e466=T
C       1.21024905       0.74842772      -2.27086127 
C      -0.21484955       0.46660441      -1.78531880 
C       2.14532990       0.77464082      -1.09474786 
O       2.21892814       1.91955017      -0.37229777 
O       1.42921302       3.00102359      -0.83531755 
O       2.82412010      -0.13245857      -0.70993855 
H       1.68798142       3.70973765      -0.22850142 
H       1.24222027       1.70768212      -2.78831119 
H       1.54050082      -0.04651757      -2.93933435 
H      -0.24922626      -0.47771701      -1.24720047 
H      -0.88713644       0.40841449      -2.63711711 
H      -0.55823047       1.26061218      -1.12696366 
