12
 energy: -21.533892090912 gnorm: 0.000449515234 xtb: 6.2.3 (830e466)
C        -0.43302178120210    1.89494885163846   -1.15714024561278
C        -0.62570924546897    0.65064439260277   -1.54221692547439
C         2.47580928915089    0.12793462085821   -1.24090068700012
O         2.81872960762875    1.42133669459492   -1.26884348351126
O         2.69209299809684    1.98438104026825   -2.55700156816702
O         2.52509662861509   -0.50482790962959   -0.23753379038129
H         2.88691171071754    2.92090674612999   -2.40059762787654
H        -0.55356748640384    2.72662591023478   -1.83276437849164
H        -0.14776464208765    2.14005246755802   -0.14701624623179
H         2.16850028874883   -0.24640116463810   -2.23309122308011
H        -0.91215356733744    0.40470613171888   -2.55213796476058
H        -0.50580380045754   -0.18028778133599   -0.86646585941259
12
Properties=species:S:1:pos:R:3 6.2.3=T gnorm:=T 0.000581696798=T pbc="F F F" energy:=T xtb:=T 830e466=T -21.527974483929=T
C       0.23153078       0.68478955      -1.59089418 
C      -1.01201812       0.27963800      -1.82749193 
C       1.17966117      -0.14261526      -0.85331416 
O       3.44419462       2.58618991      -1.51136603 
O       2.24989636       3.21266145      -1.96585720 
O       2.32354884       0.16353769      -0.61030917 
H       2.57053703       4.08686867      -2.21866566 
H       0.59708909       1.64470536      -1.93010766 
H       3.11457808       1.72921368      -1.16268667 
H       0.77433814      -1.11258061      -0.51081154 
H      -1.71588272       0.88678358      -2.37077419 
H      -1.36835327      -0.67917203      -1.48343162 
