12
 energy: -21.540899627781 gnorm: 0.000392955244 xtb: 6.2.3 (830e466)
C         0.52647805004226    1.25263974220520   -3.06114241784147
C        -0.18863398806797    0.32884821114985   -2.45280276289037
C         1.73102978511924    0.73035164651148   -0.05525310865086
O         1.19163467733206    1.92078002241184    0.12268656333802
O         1.92956218818045    2.95589463330582   -0.47263880526215
O         2.75472351979556    0.51395829378887   -0.63504265619026
H         2.68629898536404    2.48316157345299   -0.88993843370086
H         0.27866160116258    2.29979761028013   -2.99724664365511
H         1.39698893172853    1.00385130861957   -3.64617364222640
H         1.08261247734613   -0.00686539546060    0.43589115805845
H         0.05870861686305   -0.71855305406822   -2.51785250076340
H        -1.05886484486778    0.57603540780403   -1.86619675021524
12
Properties=species:S:1:pos:R:3 6.2.3=T gnorm:=T pbc="F F F" -21.558977137240=T 0.000308110478=T energy:=T xtb:=T 830e466=T
C       1.09934191       0.33174895      -2.69992415 
C      -0.16822436      -0.04437006      -2.70443461 
C       1.05749345       1.39295247      -0.58723132 
O       1.91911689       1.98435194       0.31448130 
O       2.31044942       3.26874177      -0.12778745 
O       1.77354805       1.01193351      -1.74005705 
H       3.14037511       3.11932544      -0.60710359 
H       0.23024789       2.06833128      -0.86168416 
H       1.76898059       0.11836306      -3.52145782 
H       0.66975012       0.51377648      -0.05325680 
H      -0.55975227      -0.58160331      -3.54698090 
H      -0.85212680       0.15634848      -1.90027346 
