12
 energy: -21.533914883235 gnorm: 0.000348772177 xtb: 6.2.3 (830e466)
C         0.82991103475372    0.51033667634501   -3.04215577279193
C        -0.33220737528664    0.63889114338871   -2.43620868630857
C         2.31960089947656    0.89402326742283   -0.08325690394473
O         2.14058555807371    2.11670114709773   -0.59653165565948
O         0.88807192469896    2.66747996495551   -0.25402973484618
O         3.32224635190207    0.28492045313332   -0.26408071636618
H         0.77873107893337    3.37712331507645   -0.90519678013062
H         1.51652814315598   -0.28485031512504   -2.80164045892954
H         1.15439724083128    1.19588191259802   -3.80851783111794
H         1.44981891282192    0.55450852762643    0.50662001641389
H        -1.02040001580920    1.43296104265625   -2.67832775641709
H        -0.65818375355156   -0.04817713517487   -1.67239371990173
12
Properties=species:S:1:pos:R:3 -21.512714996118=T gnorm:=T pbc="F F F" energy:=T 0.000623066694=T xtb:=T 6.2.3=T 830e466=T
C       0.41577703       1.52586532      -2.82548605 
C      -0.60064046       0.81155804      -2.38454483 
C       2.71675061      -0.00928777      -0.26246079 
O       1.16947068       2.42617803      -2.14319162 
O       0.76524178       2.58972994      -0.78743849 
O       3.36567955      -0.80989784       0.34013543 
H       1.01633820       3.50504484      -0.60574786 
H       3.05769173       0.44022968      -1.21002498 
H       0.80850922       1.48949528      -3.83217522 
H       1.73227467       0.34438450       0.08021592 
H      -1.11450864       0.13244740      -3.03594803 
H      -0.94348437       0.89405259      -1.36905350 
