12
 energy: -21.533933728134 gnorm: 0.000455711997 xtb: 6.2.3 (830e466)
C         0.32404969346038    0.82263459669738   -2.98784587790451
C        -0.52090295474898    0.67651521118188   -1.98793704996507
C         2.14202263459880    0.56163851325228   -0.34500792299798
O         1.87441607175807    1.84378993619312   -0.06754255793218
O         2.40346284950318    2.72544213505258   -1.03492464599377
O         1.77614799521148   -0.31574187936135    0.36598982308703
H         2.04990343358770    3.58402311730273   -0.75710876990417
H         0.57937738395183    1.79074171438665   -3.38841676102444
H         0.80145335922346   -0.02270684330646   -3.45620737983018
H         2.73421664578491    0.44701574396007   -1.26955073282122
H        -0.77102694814407   -0.29191316773588   -1.58782767459412
H        -1.00413016418661    1.51845092237693   -1.51942045011961
12
Properties=species:S:1:pos:R:3 6.2.3=T gnorm:=T pbc="F F F" 0.000580272116=T energy:=T -21.600519255296=T xtb:=T 830e466=T
C       0.99963862       0.51170021      -2.79978072 
C       0.29067330       0.65997081      -1.45015580 
C       1.31337792       0.75992701      -0.35332853 
O       1.89270789       1.96647288      -0.13917206 
O       1.43391420       3.03151915      -0.95330748 
O       1.69125685      -0.13557440       0.34477237 
H       1.91330851       3.78608147      -0.58126453 
H       1.60644948       1.38856059      -3.01119932 
H       0.26251394       0.40239732      -3.59072178 
H       1.63969944      -0.36745745      -2.79400509 
H      -0.32264424      -0.21883916      -1.25205388 
H      -0.33190593       1.55513156      -1.45558317 
