6
 energy: -15.382875339047 gnorm: 0.000891181997 xtb: 6.2.3 (830e466)
C         2.77417007392498    0.37663279563330   -0.05406101026430
O         2.31230544710174    0.05492127418096    0.94262624047120
O         1.25468500758287    2.57425276301060    0.10390005844047
O         3.25995343999252    0.65744036643438   -1.05014978633144
H         1.03334833687506    3.40540108416794   -0.32336669604903
H         0.73663769452310    2.52306171657307    0.91065119373349
6
Properties=species:S:1:pos:R:3 6.2.3=T gnorm:=T pbc="F F F" energy:=T 0.000402476131=T xtb:=T -15.365338948435=T 830e466=T
C       2.30163542       1.27296225      -0.20573809 
O       1.77048677       0.86777119       0.95839362 
O       1.86452781       2.45440838      -0.66900737 
O       3.10563473       0.62827834      -0.78782345 
H       1.20552451       2.90380671      -0.12338413 
H       1.12329076       1.46448313       1.35715942 
