12
 energy: -21.533960215043 gnorm: 0.000717831506 xtb: 6.2.3 (830e466)
C         1.11938362921944    0.69929633774159   -3.06933817839207
C        -0.13115912025931    0.97663765920766   -2.76398750618500
C         1.96969722742787    0.54746672872474   -0.12592478311642
O         1.97986938247697    1.88547014419278   -0.16330806548099
O         0.70187096993390    2.43978560779147    0.06141800674093
O         2.96106480348198   -0.08519716968729   -0.28819223699030
H         0.84862900974891    3.38500102228627   -0.09646824705573
H         1.51121640499184   -0.30371652254462   -3.02657822243227
H         1.81543126241201    1.46226898325977   -3.37789107915405
H         0.96424939258819    0.14076606998582    0.08022647863409
H        -0.82636102816040    0.21273990027090   -2.45664512016280
H        -0.52479193386127    1.97927123877077   -2.80912104640490
12
Properties=species:S:1:pos:R:3 -21.524527033413=T 6.2.3=T gnorm:=T pbc="F F F" energy:=T 0.000636989046=T xtb:=T 830e466=T
C       1.41277303       0.51985783      -3.25438552 
C       1.21789483       1.31967190      -2.21399431 
C       2.04365195       1.16723981      -1.00296908 
O       1.80524878       2.00058643       0.04204034 
O       0.76887234       2.95215842      -0.12932667 
O       2.92250877       0.36531769      -0.84350573 
H       0.76051128       3.39023960       0.73437964 
H       2.17252039      -0.24446816      -3.21557281 
H       0.83053781       0.59954242      -4.15625884 
H      -1.30645254      -0.53051311      -0.67623469 
H      -0.70945518      -0.29787061      -1.11821348 
H       0.47048853       2.09802779      -2.20176884 
