12
 energy: -21.533934461509 gnorm: 0.000789572549 xtb: 6.2.3 (830e466)
C         1.03110643882281    0.95478035116600   -3.16475774121808
C         1.03458065024431   -0.21299164275120   -2.55567462966350
C         0.77263084544796    1.03987862267693    0.22294059319099
O         1.65769845129026    2.00270905549004   -0.06241157793372
O         1.07471214413420    3.07780439232327   -0.76733000583780
O         1.09085710133100    0.06204794000306    0.81627562093475
H         1.83488160098659    3.65342140244760   -0.94435311914170
H         1.94390205794617    1.44167722166732   -3.46809358486054
H         0.11827409750351    1.48178562716717   -3.39062361500834
H        -0.24194385698505    1.28204737169919   -0.13764417689474
H         0.12418678127009   -0.70620101006255   -2.25605228005702
H         1.94810368800795   -0.73705933182808   -2.32817548350978
12
Properties=species:S:1:pos:R:3 6.2.3=T gnorm:=T pbc="F F F" -21.554043988841=T energy:=T xtb:=T 830e466=T 0.000473720491=T
C       0.84792585       1.00762876      -3.22913599 
C       0.40673600       0.45838107      -2.11514253 
C       0.89505193       0.82621865      -0.73362957 
O       1.90490389       1.82797677      -0.74627948 
O       1.35170894       3.11365471      -0.90814209 
O       1.44362414      -0.25966547      -0.06395728 
H       1.53381023       3.55609445      -0.06530534 
H       1.58574764       1.79198825      -3.21271775 
H       0.47433007       0.71080053      -4.19383334 
H       0.04641668       1.17238361      -0.12148058 
H      -0.33759156      -0.32528339      -2.10850935 
H       2.23632620      -0.54027793      -0.53776669 
