12
 energy: -21.533889686519 gnorm: 0.000849733615 xtb: 6.2.3 (830e466)
C        -0.59610261196577    1.47121629715180   -1.24390897689619
C        -0.45884338758379    0.33342053149331   -1.89168537809218
C         2.62254050608811    0.43042757952338   -1.17591242645240
O         2.65338680992071    1.74978793878560   -0.95323932705149
O         2.56102623119403    2.49919115352914   -2.14572325101564
O         2.69053262674110   -0.35045520234752   -0.28447807846951
H         2.49377096548256    3.40995664540427   -1.82080149933598
H        -0.47738526183095    1.53487151763056   -0.17422237933900
H        -0.83286840204406    2.39202726738742   -1.75231683171368
H         2.53628315072499    0.18804164413207   -2.24941565479356
H        -0.57795545128011    0.26854724226664   -2.96159019652337
H        -0.22517517544722   -0.58714261495618   -1.38228600031745
12
Properties=species:S:1:pos:R:3 6.2.3=T gnorm:=T pbc="F F F" energy:=T 0.000583661925=T -21.527959500299=T 830e466=T xtb:=T
C       0.35496739       0.55792257      -1.76116551 
C      -0.70405120      -0.04820762      -2.28859658 
C       1.37094412      -0.18171126      -1.02067435 
O       3.04120565       3.01012210      -0.94618349 
O       1.78214980       3.47430286      -1.42178549 
O       2.37603525       0.30099554      -0.55403198 
H       1.93380653       4.42499454      -1.48333454 
H       2.86419319       2.06108862      -0.76428359 
H       0.51502094       1.62329519      -1.85996192 
H       1.16285446      -1.26216780      -0.90767513 
H      -1.45427233       0.49113768      -2.84106081 
H      -0.85364378      -1.11188241      -2.18682662 
