12
 energy: -21.538977392466 gnorm: 0.000757394954 xtb: 6.2.3 (830e466)
C         0.27018434208447   -0.00311620066310   -4.11086898677852
C         0.59474993874096    0.22146381660253   -2.85496296739838
C         1.93243546132799    1.42671714348908    0.49738203775316
O         1.82733250079552    2.39872483581692   -0.38896864932599
O         1.14704113207027    3.52610076277345    0.09871061867358
O         1.50509102428385    1.46129577801030    1.61406504136576
H         0.91240447605000    3.27065808976769    1.02021408799304
H         0.44230998264707    0.72967107205368   -4.88210301042483
H        -0.18217809676299   -0.92775243067601   -4.42878758845567
H         2.47540458950320    0.59862326548527    0.02224509416096
H         1.04446059525803    1.14844491848558   -2.53999409523865
H         0.41996405400195   -0.51084105114625   -2.08274158232321
12
Properties=species:S:1:pos:R:3 0.000588365835=T 6.2.3=T gnorm:=T pbc="F F F" energy:=T xtb:=T -21.526391949933=T 830e466=T
C       0.67980620       0.25745934      -2.65440211 
C       0.99767594      -0.60549771      -1.69141046 
C       1.46875870      -0.17199238      -0.37572350 
O       0.90985440       3.50474078      -2.12083892 
O       0.98800823       3.64844563      -0.70715025 
O       1.56496306       0.97184478       0.00170780 
H       1.21382676       2.74165894      -0.41583050 
H       0.75863407       1.32237974      -2.50177575 
H       0.33751857      -0.07106340      -3.62128586 
H       1.75049946      -1.00200965       0.29863355 
H       0.79091038       4.41846227      -2.40695151 
H       0.92874423      -1.67443834      -1.84078249 
