12
 energy: -21.533928103750 gnorm: 0.000879403608 xtb: 6.2.3 (830e466)
C         1.04681974134911    0.44783430452088   -3.04380154954847
C        -0.15002835955542    0.34619731540432   -2.50336458042877
C         1.92041840857386    0.97505492606701   -0.01826549199364
O         2.06696306313806    2.21992282849726   -0.48864398674839
O         0.88003425048949    2.97677547883288   -0.38433600083729
O         2.81883262549117    0.19924736186767   -0.02404021259880
H         1.11132883587981    3.80121173410759   -0.83919290045653
H         1.80299640981395   -0.30781321728625   -2.90540017295943
H         1.33031680731937    1.29495792693014   -3.64788495266782
H         0.90170461381612    0.79004255205349    0.36381025133665
H        -0.90829748239960    1.10043717514271   -2.64085501477443
H        -0.43198891391493   -0.50386838613677   -1.90381538832390
12
Properties=species:S:1:pos:R:3 6.2.3=T gnorm:=T pbc="F F F" -21.554761374481=T energy:=T xtb:=T 0.000920041566=T 830e466=T
C       0.78291490       0.70743885      -2.31961276 
C      -0.49836284       0.40169755      -2.35759399 
C       1.56275932       0.88184591      -1.04336493 
O       2.07073798       2.21621209      -0.95001056 
O       1.02540156       3.13001049      -0.69763299 
O       2.67059043       0.05887981      -0.96281290 
H       1.31009830       3.57599902       0.11312242 
H       3.27404349       0.28521345      -1.68181507 
H       1.35550415       0.87580567      -3.22198925 
H       0.93344128       0.66566396      -0.16867679 
H      -1.02876391       0.29421532      -3.28814750 
H      -1.06926467       0.24701788      -1.45725567 
