12
 energy: -21.540852608022 gnorm: 0.000435412279 xtb: 6.2.3 (830e466)
C         1.11268229322315    0.61134556527557   -3.05082751858258
C        -0.12007303380969    0.41234235636008   -2.63258719668822
C         1.09548320453424    1.20360741971001    0.11196045432023
O         1.02282696331941    2.46102836346403   -0.28048103869476
O         2.24900302000116    2.96720801254203   -0.73901327930551
O         2.08936250574602    0.53750510692875    0.11770014641425
H         2.86192062811588    2.20244174717539   -0.63708679402218
H         1.43689730802775    1.56589086143025   -3.43262505726540
H         1.85596547167479   -0.16895545493648   -3.02523022963787
H         0.09447024010162    0.89804877916457    0.44285600053782
H        -0.86366038215999    1.19259660507438   -2.65653422353906
H        -0.44577821877328   -0.54303936218874   -2.25374126353777
12
Properties=species:S:1:pos:R:3 6.2.3=T gnorm:=T pbc="F F F" 0.000921222636=T energy:=T xtb:=T -21.557528083372=T 830e466=T
C       0.55316196       0.89447617      -2.41999640 
C      -0.69012409       0.46608077      -2.50803534 
C       1.27996811       1.08662113      -1.11884336 
O       1.66384503       2.44463875      -1.10039075 
O       2.02564614       2.85250213       0.19915754 
O       2.39513841       0.24894593      -0.99523640 
H       2.90125254       2.46221091       0.35074281 
H       1.13618233       1.13863741      -3.29733048 
H       2.93121112       0.31763526      -1.79624711 
H       0.64110571       0.86060601      -0.25656041 
H      -1.17487371       0.33350099      -3.45975397 
H      -1.27341353       0.23416453      -1.63311611 
