12
 energy: -21.533961987468 gnorm: 0.000532910493 xtb: 6.2.3 (830e466)
C         0.81977917815921    0.82114016648040   -3.12994318894395
C        -0.33283044969673    1.02289487920346   -2.52589020947762
C         2.09969227981736    0.41710098044498   -0.21803508429981
O         2.27022900008161    1.73612431693409   -0.36523370061785
O         1.14881526289108    2.47503719225274    0.06815429872861
O         2.94535066776525   -0.35687493236929   -0.52608249838806
H         1.34835692770092    3.37043095195906   -0.24463267698344
H         1.34860916272547    1.61551885176537   -3.63142554742297
H         1.29179235546881   -0.14724164069721   -3.15564514576370
H         1.11748307080149    0.16719207664178    0.22040957279115
H        -0.80622357599483    1.99107872344789   -2.50022305030780
H        -0.86204387971989    0.22747843393617   -2.02715276931407
12
Properties=species:S:1:pos:R:3 6.2.3=T gnorm:=T pbc="F F F" energy:=T -21.514424903242=T 0.000610518053=T xtb:=T 830e466=T
C       0.65171876       2.09018783      -2.80269197 
C      -0.41310460       1.33303472      -2.62378554 
C       2.01967457      -0.38865354      -0.31416220 
O       1.54626856       2.51470176      -1.87803848 
O       1.25939699       2.05048539      -0.56194725 
O       3.11853698      -0.15953365       0.09708626 
H       2.01184538       2.39855621      -0.06250606 
H       0.97135853       2.49188909      -3.75404909 
H       1.80963265      -0.58118017      -1.37844648 
H       1.13883896      -0.45111710       0.34411371 
H      -1.04163607       1.07049069      -3.45194229 
H      -0.68352071       0.97101878      -1.64933061 
