8
 energy: -12.462326238498 gnorm: 0.000752789429 xtb: 6.2.3 (830e466)
C         1.84926290484266    0.95440678564111   -2.11616163531731
C         1.72658157564660    0.46073354322339   -0.88981010286801
C         1.48732210114465   -0.96436912081672   -0.64688609508751
O         1.37487173400049   -1.47129066980899    0.43855517403818
H         2.02761099635261    2.00042034234197   -2.30031741751504
H         1.77811237213437    0.31879846665288   -2.98526147729407
H         1.41756422956502   -1.56934574339121   -1.57368473509447
H         1.79905408631360    1.08687639615757   -0.01121371086175
8
Properties=species:S:1:pos:R:3 0.000395195457=T 6.2.3=T gnorm:=T pbc="F F F" -12.384813639110=T energy:=T xtb:=T 830e466=T
C       1.29034369       1.44773406      -2.38908580 
C       1.23861902       1.48793504      -1.19622959 
C       2.10129344      -1.26310594      -0.72857750 
O       1.81482903      -1.31205756       0.42895796 
H       3.07882891      -0.90146653      -1.08684642 
H       1.34217866       1.40824279      -3.43707081 
H       1.41492801      -1.58770733      -1.52708557 
H       1.17935924       1.53665546      -0.14884226 
