12
 energy: -21.525538971673 gnorm: 0.000501454279 xtb: 6.2.3 (830e466)
C         2.47310273224020    1.24275044967060   -1.84833969164221
C         2.19976624969737    0.36473887013115   -0.88636837326984
C         0.97017107386542   -0.42700491586227   -0.87116613451221
O        -0.65066284149106    2.21348073210382   -2.65280521547151
O        -0.33681486829719    2.95226796373293   -1.47841531306105
O         0.02340302060210   -0.27818112942846   -1.60815400660812
H        -0.78461067522839    3.79096498471406   -1.64336750793733
H         1.78786847295919    1.40749505347385   -2.66349505368598
H         3.38181236467669    1.82025731108446   -1.85188087486229
H         0.95223764831810   -1.21922039517021   -0.10062762657018
H        -0.51517359658905    1.28671195630088   -2.35851498335446
H         2.88810041924671    0.18575911924897   -0.07255521902491
12
Properties=species:S:1:pos:R:3 6.2.3=T gnorm:=T -21.540810343427=T 0.000575005857=T energy:=T xtb:=T 830e466=T pbc="F F F"
C       2.54576539       1.66486215      -2.09702976 
C       2.19179559       2.16442148      -0.93108642 
C      -0.11064391      -0.27303892      -1.06243911 
O      -0.86214107       1.62087316      -2.07339679 
O      -0.73794151       0.87387639      -0.89183968 
O       0.32365257      -0.67904733      -2.10038281 
H       1.59984079       3.06136937      -0.84959259 
H       2.26331292       2.13411588      -3.02582027 
H       3.13181584       0.76427290      -2.18187910 
H      -0.06661776      -0.77660485      -0.08701961 
H      -0.36551094       1.08573901      -2.73465939 
H       2.47587210       1.69918076      -0.00054448 
