12
 energy: -21.518130016300 gnorm: 0.000854874097 xtb: 6.2.3 (830e466)
C         1.55645768043092    0.67691641542616   -1.62651252825142
C         1.48905511510335    0.01389417067141   -0.47586378926286
C         2.03780468961445   -1.34163928664020   -0.33997147212395
O        -0.92854582275776    3.98966686563755   -3.19296348014897
O         0.23737797946958    3.70249356875212   -2.43338632295239
O         2.56951389983429   -1.96964280684511   -1.21940981755597
H         0.78006012302062    4.48548448456118   -2.59314667472910
H         1.16260719568810    1.67136409849316   -1.75330762201706
H         2.02193526366855    0.21286321344028   -2.48204488987444
H         1.92445925156497   -1.77272450697705    0.67470989766072
H        -1.49338640020805    3.22993409820699   -2.99856334375430
H         1.03195102456166    0.44149968530731    0.40485004301969
12
Properties=species:S:1:pos:R:3 6.2.3=T gnorm:=T pbc="F F F" 0.000983213349=T -21.509917491787=T energy:=T xtb:=T 830e466=T
C       0.53787173       0.92757598      -1.65676731 
C       0.86482077       0.23195198      -0.55761959 
C       1.93765122      -0.74510757      -0.61424706 
O      -0.60644395       2.43654423      -2.92838037 
O      -0.43381242       1.83985896      -1.65184187 
O       2.60264577      -1.00335933      -1.58853721 
H       2.51772134       3.62195843      -2.42254161 
H       2.69845779       3.00236479      -1.98734217 
H       1.05633559       0.76805251      -2.59533506 
H       2.11627260      -1.26248058       0.34749145 
H      -1.24987131       3.13775844      -2.75558535 
H       0.34764088       0.38499216       0.37509615 
