12
 energy: -21.527972368507 gnorm: 0.000642694518 xtb: 6.2.3 (830e466)
C         3.01621942059912    0.43246923867651   -2.26809309305393
C         1.81517779729274    0.73971873980324   -1.78815944287270
C         0.93508425806995   -0.27636727609444   -1.22207035398808
O        -1.34363048697429    2.49183872232912   -0.84611135109941
O        -0.19621109255627    3.24452145423030   -1.22295958861854
O        -0.17244377437895   -0.06847909832249   -0.78470408284949
H        -0.52306678918079    4.14927277870022   -1.15397100670124
H         3.67024727215275    1.17699841903091   -2.68899541433226
H         3.38540887585132   -0.58159960495657   -2.25681530112471
H         1.35744961187056   -1.29819837023454   -1.21540945250551
H        -0.99121909701315    1.57647153003211   -0.79354038551674
H         1.43599400426541    1.75296346680581   -1.79496052733295
12
Properties=species:S:1:pos:R:3 6.2.3=T gnorm:=T pbc="F F F" 0.000879825752=T energy:=T xtb:=T 830e466=T -21.620724969996=T
C       3.08922211       0.60993805      -2.17050751 
C       1.86577107       0.96533030      -1.74276178 
C       0.95210951      -0.08386641      -1.26788808 
O      -1.06485784       2.67778613      -0.78687296 
O       1.46548365       2.24435014      -1.76685699 
O      -0.19148741       0.08824820      -0.90490143 
H       0.56800576       2.36981566      -1.37299081 
H       3.77823220       1.34836652      -2.53751403 
H       3.40588371      -0.41520160      -2.16135593 
H       1.39541792      -1.09354805      -1.27541115 
H      -1.13700776       1.72435542      -0.61703434 
H      -1.73776292       2.90403564      -1.43169497 
