12
 energy: -21.525544114500 gnorm: 0.000921247523 xtb: 6.2.3 (830e466)
C         2.42145322498384    1.52384841927863   -1.14814002408319
C         1.93648606085350    0.52179309008965   -0.41868201732060
C         1.00259153999534   -0.46485921718031   -0.96077938413318
O        -0.53831618522969    2.69160657677038   -2.12237902613173
O        -0.14393221845197    2.00240165863215   -3.30288864357812
O         0.45917168848504   -0.40773766315747   -2.03908853614059
H         0.02289247137501    1.09434277412960   -2.96784916897254
H         3.11229408799600    2.24260663502776   -0.74165404055128
H         2.13845903513803    1.64923529955376   -2.18062275572797
H         0.80834564828228   -1.32023414962372   -0.28803199729760
H        -1.05574374627182    3.42483626106239   -2.47886018319384
H         2.22561839274058    0.38215031536198    0.61327577711251
12
Properties=species:S:1:pos:R:3 6.2.3=T gnorm:=T pbc="F F F" 0.000791057062=T energy:=T -21.558459692756=T xtb:=T 830e466=T
C       2.84070563       1.23570281      -1.19840972 
C       1.61877687       1.10767601      -0.72097622 
C       0.50817775       0.37567317      -1.43795713 
O      -0.52258764       2.38227020      -1.95664884 
O      -0.70291308       1.09093416      -1.35529774 
O       0.81709074       0.01906660      -2.74087221 
H       0.93592274       0.83364616      -3.24768823 
H       3.60633231       1.76592095      -0.66000821 
H       3.12477586       0.79751993      -2.14123439 
H       0.25796136      -0.55285792      -0.90487602 
H      -1.41437973       2.74809464      -1.89591932 
H       1.31945720       1.53634329       0.22418802 
