12
 energy: -21.526376677579 gnorm: 0.000412060165 xtb: 6.2.3 (830e466)
C         3.57544548889225    0.92508169830664   -1.71544632292791
C         2.59467683104183    0.31108279712840   -1.06238412133513
C         1.20107611332329    0.72168161354091   -1.20317453664627
O        -1.42353120528917    2.38431566991487   -2.22782507575402
O        -2.10717102004631    1.49850735032737   -1.34736233841718
O         0.27219933025012    0.20492507806927   -0.62600138979525
H        -1.37354801801970    0.94902325041383   -0.99851252021876
H         4.60579738159837    0.62804714347232   -1.61417596982892
H         3.37444921548443    1.75363002577716   -2.37620564900933
H         1.03802920444815    1.56595789414919   -1.89548013255060
H        -2.15030499000798    2.91771077678212   -2.57258774822777
H         2.78238166832638   -0.51997329787744   -0.39664419529059
12
Properties=species:S:1:pos:R:3 6.2.3=T gnorm:=T pbc="F F F" 0.000610791533=T energy:=T xtb:=T 830e466=T -21.631141099752=T
C       3.34301544       1.36792081      -1.93116248 
C       2.36258766       0.55783390      -1.55768821 
C       0.91709558       0.76365903      -1.82903025 
O       0.58340924       1.65101949      -2.77308939 
O      -2.10790326       1.42178734       0.18950018 
O       0.06441014       0.16101102      -1.22956890 
H      -2.85530749       1.31957630      -0.40280552 
H       4.36635430       1.16429003      -1.66498082 
H       3.18874604       2.27855715      -2.49209684 
H      -1.38843382       0.91003049      -0.20240241 
H       1.35521209       2.06420195      -3.18245664 
H       2.56031407      -0.31989750      -0.96001872 
