8
 energy: -12.462325945924 gnorm: 0.000459859893 xtb: 6.2.3 (830e466)
C         2.00862822901586    1.19991267050628   -1.53618217680204
C         1.93546522401657    0.12963532495629   -0.75397456665544
C         1.27374260050697   -1.10439944757311   -1.18374230959825
O         1.18450072108751   -2.10658206809455   -0.52379094817548
H         2.49995782343366    2.10643689501971   -1.22582274276270
H         1.57527605204208    1.20225181514153   -2.52423660027058
H         0.84390104638600   -1.04800977651136   -2.20418923611276
H         2.36202830351134    0.11695458655520    0.23934858037726
8
Properties=species:S:1:pos:R:3 6.2.3=T gnorm:=T pbc="F F F" energy:=T xtb:=T -12.481522981433=T 0.000823684302=T 830e466=T
C       1.67550221       0.88116878      -1.74174472 
C       1.70688784      -0.11499381      -0.61397854 
C       1.78374146      -1.39463681      -0.77334954 
O       1.85713051      -2.55014351      -0.90963931 
H       2.51475034       1.56962196      -1.65843146 
H       1.73258017       0.37473167      -2.70093792 
H       0.75346415       1.46089113      -1.70622627 
H       1.65944332       0.26956059       0.39171774 
