8
 energy: -12.462326238498 gnorm: 0.000752789429 xtb: 6.2.3 (830e466)
C         1.84926290484266    0.95440678564111   -2.11616163531731
C         1.72658157564660    0.46073354322339   -0.88981010286801
C         1.48732210114465   -0.96436912081672   -0.64688609508751
O         1.37487173400049   -1.47129066980899    0.43855517403818
H         2.02761099635261    2.00042034234197   -2.30031741751504
H         1.77811237213437    0.31879846665288   -2.98526147729407
H         1.41756422956502   -1.56934574339121   -1.57368473509447
H         1.79905408631360    1.08687639615757   -0.01121371086175
8
Properties=species:S:1:pos:R:3 6.2.3=T gnorm:=T pbc="F F F" energy:=T -12.392146565898=T xtb:=T 830e466=T 0.000737488520=T
C       2.38467982       0.88642441      -2.30664196 
C       2.58782898       0.16445370      -1.22713283 
C       2.69793641      -0.86277521      -0.48390317 
O       2.84505257      -1.64781411       0.37113596 
H       2.45595784       1.96382721      -2.27586969 
H       2.13755347       0.45039356      -3.26809742 
H      -0.95981354      -0.32555168      -0.70563496 
H      -0.68881555       0.18727212      -0.18863593 
