8
 energy: -12.462326238498 gnorm: 0.000752789429 xtb: 6.2.3 (830e466)
C         1.84926290484266    0.95440678564111   -2.11616163531731
C         1.72658157564660    0.46073354322339   -0.88981010286801
C         1.48732210114465   -0.96436912081672   -0.64688609508751
O         1.37487173400049   -1.47129066980899    0.43855517403818
H         2.02761099635261    2.00042034234197   -2.30031741751504
H         1.77811237213437    0.31879846665288   -2.98526147729407
H         1.41756422956502   -1.56934574339121   -1.57368473509447
H         1.79905408631360    1.08687639615757   -0.01121371086175
8
Properties=species:S:1:pos:R:3 6.2.3=T gnorm:=T pbc="F F F" -12.395098380704=T energy:=T xtb:=T 830e466=T 0.000886625106=T
C       1.81709907       1.14570772      -2.35780249 
C       2.00698944       0.63574116      -1.15976685 
C       1.33529942      -2.31296626      -0.20950023 
O       0.64540757      -2.20579919       0.67885185 
H       1.82080737       2.20997310      -2.53284514 
H       1.65738682       0.52352125      -3.22295131 
H       2.00906392      -0.43370509      -0.98948723 
H       2.16832638       1.25375733      -0.29127861 
