12
 energy: -21.525537751057 gnorm: 0.000384361188 xtb: 6.2.3 (830e466)
C         2.50572674854107    1.35588026888773   -1.67087053631875
C         2.14084144249303    0.78273760241519   -0.52648430947191
C         1.02113856098413   -0.15414871689514   -0.43928346090249
O        -0.48206515300763    1.55905535718929   -3.16921008687225
O        -0.55670306889444    2.62112846493732   -2.22634124750676
O         0.22851371046037   -0.39332868566266   -1.32035513208963
H        -1.07162036888824    3.28121790929720   -2.70692748417305
H         3.33306231273662    2.04274043257083   -1.72594088471410
H         1.97934220903103    1.15191056241884   -2.58921234317496
H         0.93302083166955   -0.66386258338483    0.53745834834635
H        -0.31195549550477    0.78132944159918   -2.59434563902916
H         2.66997827037910    0.97542994662898    0.39591277590639
12
Properties=species:S:1:pos:R:3 -21.552101079424=T gnorm:=T 6.2.3=T pbc="F F F" energy:=T xtb:=T 0.000577300260=T 830e466=T
C       2.59711488       1.69618049      -1.81151635 
C       1.91909682       0.97307155      -0.94217698 
C       0.49725302       0.51239198      -1.15928106 
O      -0.16513072       1.19860264      -2.21602322 
O      -0.64344603       2.44714625      -1.77869726 
O       0.51495734      -0.82659810      -1.51750543 
H      -0.01392897       3.09205150      -2.13532786 
H       3.61294375       1.99945886      -1.62821456 
H       2.16576898       2.00131523      -2.75118315 
H      -0.08909302       0.67955527      -0.23212427 
H      -0.35808561      -1.06834746      -1.85080835 
H       2.35182956       0.63526180      -0.01274152 
