12
 energy: -21.567417562828 gnorm: 0.000678141812 xtb: 6.2.3 (830e466)
C         1.85818307278674    0.79364264268106   -2.71445228060505
C         1.27616919761991    1.20209667841340   -1.36153480532612
C         0.67921627024995   -0.00166470336836   -0.65516311755157
O         0.31080339586367    2.19362138945191   -1.62224798743105
O        -0.14072802377212    2.75086489318219   -0.38686384453661
O         1.30076302314312   -0.97338580400809   -0.33686500771851
H        -0.54415541561299    3.58005865420152   -0.67467728563053
H         2.57008771955189   -0.01211657378960   -2.56383905594961
H         2.35411563098042    1.64108376957757   -3.17852641845622
H        -0.40275183198233    0.09764118969251   -0.45749243894904
H         1.05841318878892    0.45357013181642   -3.36685292887733
H         2.06898377238282    1.61478773214947   -0.71738482896841
12
Properties=species:S:1:pos:R:3 -21.560342300791=T 6.2.3=T gnorm:=T pbc="F F F" energy:=T xtb:=T 830e466=T 0.000689731988=T
C       2.34051724      -0.05392232      -2.60385988 
C       0.45323649       1.59846800      -1.29998506 
C       0.70417777       0.33628926      -0.95312289 
O      -0.54275466       2.27878843      -0.66102139 
O      -0.03660063       3.53717816      -0.16029045 
O       1.54064413      -0.53573854      -1.54726786 
H      -0.85157660       4.00909800       0.05536778 
H       2.94982809      -0.89590486      -2.92721850 
H       2.98855065       0.76145157      -2.27002784 
H       0.14879904      -0.13516604      -0.15479866 
H       1.72290604       0.29425020      -3.43737043 
H       0.97137243       2.14540815      -2.07630481 
