12
 energy: -21.567407711173 gnorm: 0.000697417277 xtb: 6.2.3 (830e466)
C         1.72600093178950    0.73721426911546   -2.77389512489147
C         1.28211048151577    1.24889557548037   -1.40297085558859
C         0.91441742412941    0.07620757491719   -0.51194078046476
O         0.18271244759609    2.09811849450787   -1.63509633243778
O        -0.22222625477291    2.69886251733535   -0.40649592902719
O         1.70305944466700   -0.70648557523853   -0.06822316442068
H        -0.61590080042056    3.53098086950022   -0.70064185433509
H         2.55921513753904    0.05317279400594   -2.64569449569024
H         2.02884714621892    1.57179493926395   -3.39963140023496
H        -0.16961564268714    0.00260891253050   -0.31236081119326
H         0.90061269647651    0.21904798913466   -3.25496349597731
H         2.09967698794835    1.80980163944704   -0.92409575573863
12
Properties=species:S:1:pos:R:3 6.2.3=T gnorm:=T pbc="F F F" energy:=T -21.635109322180=T 0.000507571320=T 830e466=T xtb:=T
C       1.54153455       0.85838509      -3.03813422 
C       0.90061988       1.61127324      -0.87370010 
C       0.86941993       0.25861160      -0.16337041 
O       0.53485641       1.41600273      -2.22274142 
O      -0.02764450       2.45341362      -0.28735905 
O       1.75206791      -0.54717970      -0.22254415 
H      -0.39449294       3.02164191      -0.97629322 
H       1.83482495      -0.13729572      -2.69451469 
H       2.42598451       1.50512985      -3.05836860 
H      -0.08400227       0.07290568       0.35935696 
H       1.10977012       0.79010763      -4.03422447 
H       1.92597146       2.03722407      -0.82411662 
