12
 energy: -21.568046086901 gnorm: 0.000277551751 xtb: 6.2.3 (830e466)
C         2.01853848444998    1.15996570360480   -2.39011911725920
C         0.83457785901164    0.56929263831567   -1.62031948336089
C         1.15653594992024    0.45073397545788   -0.13993232880046
O        -0.37855288524034    1.24703434663862   -1.84004265043609
O        -0.29824953406224    2.57963494881039   -1.32438296210581
O         2.16835789574715   -0.01445356717048    0.29653440972749
H        -0.98214418980919    3.03426072573199   -1.83294013490858
H         2.91319523233144    0.59439706377143   -2.14910078579107
H         2.16195466707767    2.19614205562709   -2.09304923244637
H         0.35641746601395    0.84342838472130    0.51250304801767
H         1.83383041139088    1.11711673291488   -3.46004678364731
H         0.60474864316882   -0.43746300842354   -1.99489397898936
12
Properties=species:S:1:pos:R:3 6.2.3=T gnorm:=T pbc="F F F" 0.000251385251=T energy:=T -21.570014812761=T 830e466=T xtb:=T
C       1.83599904       1.18033255      -2.48573298 
C       0.75925379       1.02121537      -1.44772706 
C       0.81422340       0.20766153      -0.38949127 
O      -0.40223213       1.72491532      -1.62660406 
O      -0.14890155       3.15555708      -1.63971646 
O       1.78729455      -0.69265200      -0.13034846 
H      -1.04596284       3.50720405      -1.59337143 
H       2.82676642       1.04033655      -2.05689848 
H       1.77662651       2.18745356      -2.89106455 
H       0.00814756       0.16057577       0.32643039 
H       1.69548855       0.47293099      -3.30373859 
H       2.48250669      -0.62544079      -0.79752705 
