12
 energy: -21.566250403513 gnorm: 0.000999528657 xtb: 6.2.3 (830e466)
C         1.72491896867881    0.98137487734468   -2.56142653071195
C         1.15943369833274    1.10827943945097   -1.14705534153916
C         0.91815096339725   -0.24253340818462   -0.50466703122636
O        -0.07082826629613    1.79795723992893   -1.09354918292619
O         0.15804352412402    3.19549148468426   -1.25158807635034
O         1.62094307136189   -1.19837872816456   -0.65140490704593
H        -0.61146555138626    3.48419765757114   -1.76043852413503
H         2.60568934031496    0.34679743987020   -2.53424515301440
H         1.99476101379743    1.96108598080709   -2.94706565626405
H         0.02025629341931   -0.25780124595324    0.13614695156250
H         0.98231104231668    0.53063879136723   -3.21593081160184
H         1.88677590193930    1.63308047127792   -0.50467573674725
12
Properties=species:S:1:pos:R:3 -21.680738890315=T 6.2.3=T gnorm:=T pbc="F F F" energy:=T 0.000468051717=T xtb:=T 830e466=T
C       1.61424094       1.30880145      -2.73970563 
C       1.13614579       1.70731035      -1.34794437 
C       0.56564455      -0.28466981      -0.19259748 
O       0.14719972       0.74795643      -0.89948414 
O       0.56645849       2.95837722      -1.29347358 
O       1.69349010      -0.54692619       0.09980220 
H      -0.18333247       2.99496147      -1.90157979 
H       2.10882832       0.34261328      -2.69647641 
H       2.31622382       2.05428065      -3.10252990 
H      -0.30980428      -0.89395522       0.09020723 
H       0.76722393       1.24769660      -3.42086848 
H       1.96667109       1.70374378      -0.63124964 
