12
 energy: -21.566410686244 gnorm: 0.000740089990 xtb: 6.2.3 (830e466)
C         1.68576800973245    0.94659941452722   -2.61856683666207
C         1.18834323801971    1.13193062648794   -1.18195622354076
C         1.03795544605587   -0.20019625785390   -0.48048102051979
O        -0.07007245114393    1.76351189257791   -1.10848126911599
O         0.08412397421216    3.14659170607372   -1.42859121226549
O         1.88550192808852   -1.04279211535885   -0.43892693574020
H        -0.80634807005771    3.48908900539685   -1.27830892919568
H         2.62609163671033    0.40477284743900   -2.60250728347588
H         1.82965425735353    1.91765728246524   -3.08367707696836
H         0.04991408987026   -0.32881587544794   -0.00313850682436
H         0.95462194280251    0.38237622144705   -3.19196929674718
H         1.92364599835631    1.72956525224582   -0.61919540894428
12
Properties=species:S:1:pos:R:3 0.000552846257=T 6.2.3=T gnorm:=T pbc="F F F" energy:=T -21.510338993805=T xtb:=T 830e466=T
C       1.80382690       0.91728888      -3.21215533 
C       0.95628441       0.64389137      -1.98732777 
C       1.35038488      -0.26289163      -1.12254623 
O      -0.14182720       1.40741342      -1.75392761 
O       0.22902600       2.69371735      -1.14773322 
O       1.68989137      -1.14934229      -0.45635521 
H      -0.63043096       3.12473247      -1.07116084 
H       2.62179362       0.20640796      -3.27541644 
H       2.20673853       1.92751881      -3.15531438 
H       0.42994407       1.21804756       1.86153867 
H       1.18314378       0.83633392      -4.10251228 
H       0.69042460       1.77717218       1.38711063 
