12
 energy: -21.567415720310 gnorm: 0.000902679105 xtb: 6.2.3 (830e466)
C         1.73222769878778    0.66854238429574   -2.75432746836931
C         1.29182778226255    1.23946972672944   -1.40644211551754
C         0.86101043793178    0.11705073957534   -0.47920135463363
O         0.23960585856745    2.13601162649245   -1.67325147654211
O        -0.09013029225225    2.84140183937563   -0.47502001454060
O         1.58874384654951   -0.74223759322424   -0.07519233876111
H        -0.65576499171067    3.55047673853876   -0.80858625883631
H         2.51836658076163   -0.06191005086303   -2.58967350073730
H         2.09892503548061    1.46580682434762   -3.39426304894368
H        -0.20980526142485    0.15985927114589   -0.20767224168590
H         0.88713875428171    0.18818333965443   -3.24068694699123
H         2.12685455076473    1.77733515393197   -0.93137323444130
12
Properties=species:S:1:pos:R:3 6.2.3=T gnorm:=T 0.000729436482=T pbc="F F F" energy:=T -21.520052947813=T xtb:=T 830e466=T
C       1.91085004       0.29998525      -2.56554292 
C       1.97103530       0.46129117      -1.24835661 
C       0.84208850       0.13366728      -0.36995615 
O      -0.11135577       2.81389190      -2.37929773 
O       0.24373566       2.79177510      -1.00519489 
O       0.86115813       0.20045585       0.83054044 
H      -0.50645565       3.23832636      -0.59057433 
H       2.73986020       0.53595689      -3.21276875 
H       0.61996909       2.32098334      -2.78142087 
H      -0.06209123      -0.20620771      -0.91298335 
H       1.02730847      -0.09838195      -3.04194863 
H       2.85289726       0.84824653      -0.75818621 
