12
 energy: -21.566431536025 gnorm: 0.000833134960 xtb: 6.2.3 (830e466)
C         1.77403752946440    1.05515092568867   -2.57183224444241
C         1.16007254383730    1.09076826775941   -1.16975788994463
C         0.92782716928548   -0.30576059297175   -0.63432411531755
O        -0.08709400176344    1.74643496847196   -1.12555603278650
O         0.12272002823588    3.15454761174935   -1.24115500817263
O         1.74445190886638   -1.17946183010271   -0.64827825578214
H        -0.78186339992958    3.49369212765490   -1.22828901531933
H         2.67969447166017    0.45707580300071   -2.54738903987196
H         2.00973613251324    2.06469238720709   -2.89617181082234
H        -0.08571847723891   -0.44756380397578   -0.21961347317367
H         1.06912146639751    0.61170916473703   -3.27104274004788
H         1.85602462867155    1.59882497078108   -0.48229037431902
12
Properties=species:S:1:pos:R:3 -21.592591946525=T 6.2.3=T gnorm:=T pbc="F F F" energy:=T xtb:=T 0.000605983021=T 830e466=T
C       1.59405056       1.49880028      -3.08241291 
C       0.43266981       1.15022414       0.16923669 
C       0.88567754      -0.13410369      -0.48502159 
O      -0.70886073       1.52612466       0.15367291 
O       1.24990354       2.10661462      -1.85411906 
O       1.97486996      -0.61099459      -0.34377243 
H       0.52227707       2.72437834      -1.99930729 
H       2.38428908       0.78250920      -2.86586833 
H       1.96949805       2.24172576      -3.79170498 
H       0.10673879      -0.60456474      -1.11325391 
H       0.74262911       0.97511646      -3.52641248 
H       1.23526723       1.68427955       0.70326337 
