11
 energy: -17.549085437163 gnorm: 0.000391560396 xtb: 6.2.3 (830e466)
C         0.93147868020576    0.64740690158985   -1.11809095431070
C        -0.08835257947401   -0.73034691056591    2.12705308496340
C        -0.21185080099030   -1.79587252870207    1.41700746531277
O         0.29277871112432    1.47020309018893   -0.16851667728781
O        -0.32241842921864   -2.74632570003160    0.75231305594743
H        -0.47699686346811    1.87992878443986   -0.57688878693803
H         1.79917682913934    0.21564742617379   -0.62256040760564
H         1.26638903205364    1.22288028514795   -1.98646782720931
H         0.27562098385044   -0.16238708018670   -1.45313713405928
H        -0.15289464959925   -0.74647853710583    3.19576961410192
H         0.09091908637906    0.21577426905269    1.64789856708191
11
 energy: -17.575640216767 gnorm: 0.000510616932 xtb: 6.2.3 (830e466)
C         0.98154488326070    0.54961249844651    0.01866420992954
C         0.50194064320041   -0.40311980351089    1.13162027059313
C        -0.67966719104743   -1.22008635123326    0.70377311273646
O         0.10017008730687    1.61271770042322   -0.22587640928159
O        -0.75075002131109   -2.41482314176248    0.74466390102174
H        -0.70862136331682    1.28036454133307   -0.63045449166047
H         1.91670604778375    1.01723098016977    0.33582254710692
H         1.17456415483941   -0.02444751043863   -0.89777768553077
H        -1.53187467583762   -0.61539930091872    0.32812873307226
H         1.31664317293186   -1.06549528822587    1.42499095696862
H         0.20189426219002    0.20218567571725    1.99083485504423
