9
 energy: -15.732757304402 gnorm: 0.000648985529 xtb: 6.2.3 (830e466)
C        -0.00812739262532   -0.15860219284443    0.56729722785546
N         0.88741589614318   -0.57923137775944   -0.49134562380040
O        -1.15668339344338   -0.93204767568394    0.51340395283817
O        -0.25527279911195    1.19819138059610    0.42965866832879
H        -1.49314291607452   -0.92661198608607   -0.39266776132183
H        -0.54222546769857    1.37277076879912   -0.47667983241782
H         0.38176101391536   -0.28207033549393    1.59040318291679
H         1.09758237812010   -1.56621813102622   -0.40591143081711
H         1.75498268077511   -0.05838045050120   -0.45026838358206
9
Properties=species:S:1:pos:R:3 energy:=T -15.726911886395=T gnorm:=T 0.000876712550=T xtb:=T 6.2.3=T (830e466)=T pbc="F F F"
C       -0.09181049       0.00376276      -0.62520296
N        1.11180619      -0.60279766      -0.61738805
O       -1.12993008      -0.51088745      -0.94758285
O        0.00963661       1.29311804      -0.23035371
H       -0.88539273      -1.18484093       2.01329271
H       -0.86587594       1.70247698      -0.25727981
H       -0.57402573      -0.94471984       2.68537734
H        1.16941445      -1.57724810      -0.84819796
H        1.92246773      -0.11106380      -0.28877470
