9
 energy: -15.730864278703 gnorm: 0.000411407213 xtb: 6.2.3 (830e466)
C        -0.00003826250797   -0.03511650712158    0.43747509751853
N         0.10071793421484   -1.45208771305512    0.30265974643732
O         1.08203455500046    0.68536668135624   -0.10574523243026
O        -1.19208815657624    0.34109351274363   -0.17154798266787
H         1.09530421043498    0.55630488908228   -1.06362916397171
H        -1.37859944167478    1.26368643488726    0.03187269613671
H         0.01940287468690    0.21757422933952    1.50889046419867
H         1.01065194584960   -1.77758868119178    0.60059957981236
H        -0.07098565942779   -1.73152284604044   -0.65647520503374
9
Properties=species:S:1:pos:R:3 energy:=T -15.713475903899=T gnorm:=T 0.000797091738=T xtb:=T 6.2.3=T (830e466)=T pbc="F F F"
C       -0.66749115       0.84845771       0.34586111
N        1.04718400      -2.04818242       0.02522548
O        0.19642516       0.96791454      -0.47307254
O       -1.53868365       1.78470312       0.67343662
H        1.05804484      -1.09452008      -0.32134822
H       -1.38614427       2.59750297       0.16026701
H       -0.84688534      -0.06360833       0.93210135
H        1.99535296      -2.27781999       0.29838098
H        0.80859745      -2.64673752      -0.75675179
