13
 energy: -23.857993286514 gnorm: 0.000618621312 xtb: 6.2.3 (830e466)
C         9.42394420430514    1.10156872723515    2.09988994364924
C        10.63942215740527    1.97620884851261    1.71668033889811
C         8.25359024083328    1.23791643504924    1.13512427232434
C         9.79901252466924    2.67626224651624    3.70241274169849
O         9.06751678434670    1.59783438618518    3.38345415157434
O        10.71651709409888    2.93494786357070    2.75228807447659
O         9.66042346798983    3.31501062337735    4.69073003347566
H         9.69805976215871    0.04752308968035    2.21808832958440
H        10.49363456010341    2.49503814745826    0.76542567012384
H        11.57632497021606    1.41226065448703    1.68593304494351
H         7.97782683362654    2.28403200541765    1.02206003805115
H         8.52692290144388    0.83008429416500    0.16584740343379
H         7.39658449880305    0.69391267834524    1.52216595776654
13
Properties=species:S:1:pos:R:3 energy:=T -23.790684976059=T gnorm:=T 0.000988434767=T xtb:=T 6.2.3=T (830e466)=T pbc="F F F"
C        9.71198529       1.70565773       1.61048509
C       11.07144363       2.36216872       1.55306679
C        9.07891586       0.99419126       0.69796058
C       10.09299026       2.72787332       3.55739626
O        9.20428255       1.98726191       2.85443310
O       11.19486999       2.96422629       2.82698280
O        9.91569457       3.11077796       4.66315043
H        6.21279377      -0.08655889       3.21522614
H       11.13488504       3.13338089       0.77801855
H       11.88279671       1.64072259       1.41067275
H        6.09366617       0.66623860       3.05831395
H        9.53069215       0.80930896      -0.25757429
H        8.10476400       0.58735066       0.89196783
