13
 energy: -23.857986991260 gnorm: 0.000819820336 xtb: 6.2.3 (830e466)
C         9.38874736102062    1.11383705917609    2.10603504274886
C        10.67017400394252    1.92793919928798    1.81560029404535
C         8.31904534051107    1.26151286677432    1.03273012347943
C         9.70366694119586    2.69242434835662    3.71791792592035
O         8.93525586883294    1.66213090562115    3.33735448829746
O        10.72307247372020    2.87843748097696    2.85979544435260
O         9.51632026688521    3.35046120494957    4.68538701882469
H         9.60811235533468    0.05401230936562    2.27814728681708
H        10.61609624064172    2.45599136267028    0.85942468565514
H        11.57799141540199    1.31888378745834    1.84430267975151
H         8.09248261983127    2.31224384723454    0.86803102913859
H         8.66757004492037    0.81761226707886    0.10468243921236
H         7.41106506776156    0.75722336104967    1.35068154175658
13
Properties=species:S:1:pos:R:3 energy:=T -23.788686143359=T gnorm:=T 0.000478419982=T xtb:=T 6.2.3=T (830e466)=T pbc="F F F"
C       10.18327170       0.12076776       2.54633371
C       10.75449216       1.42927166       2.04139058
C        8.13627904       2.42513347       1.49919452
C        9.02783712       3.07041250       2.52967112
O        9.25619769       0.00215932       3.28877301
O       10.27632588       2.57456523       2.70041824
O        8.70705917       4.01745386       3.18697885
H       10.72840110      -0.75193556       2.13631468
H       10.59545017       1.47325404       0.95429174
H       11.83482621       1.42180971       2.22144466
H        7.21754086       3.00113156       1.44005086
H        8.61468961       2.41278764       0.52106760
H        7.89722930       1.40589881       1.79416041
