13
 energy: -23.857993204532 gnorm: 0.000870628723 xtb: 6.2.3 (830e466)
C         9.47031221441172    1.10267430504992    2.11736353492991
C        10.63292423087291    2.06036284952029    1.76996538923630
C         8.34934718980678    1.11402764669530    1.08699410008918
C         9.63791078744132    2.74231564884284    3.68917934487064
O         9.00443407641847    1.60689914214359    3.36174576803764
O        10.58664638113323    3.04309621073540    2.78379698008406
O         9.39867494006259    3.39339265029011    4.64973321567137
H         9.81996221163607    0.07834743773822    2.28614885932499
H        10.49439194171059    2.54623180038829    0.80081039341416
H        11.60996043801753    1.57039337605442    1.79627317737132
H         7.99718349189898    2.12996050174029    0.92394669814036
H         8.70928634037164    0.70199829865177    0.14854275131231
H         7.51866575621820    0.51279013214955    1.44546978751774
13
Properties=species:S:1:pos:R:3 energy:=T -23.800190940998=T gnorm:=T 0.000894770762=T xtb:=T 6.2.3=T (830e466)=T pbc="F F F"
C        9.56524358       0.67732816       1.71230671
C       10.48665499       1.86433496       1.75966071
C        8.63045807       0.50090753       0.79472338
C        9.57324460       3.06520665       3.65996232
O        8.38968994       3.04455735       3.04058516
O       10.60119995       2.43522679       3.06259982
O        9.73744841       3.61924429       4.69886374
H        9.72465725      -0.04702717       2.49935874
H       10.19263761       2.62985474       1.02885964
H       11.50837061       1.54308657       1.53239581
H        8.34505472       2.43366555       2.28868974
H        8.46719492       1.21241058      -0.00029172
H        8.00784534      -0.37630600       0.78225594
