13
 energy: -23.794003208256 gnorm: 0.000666052481 xtb: 6.2.3 (830e466)
C        10.17775219268440    2.14887184989623    1.81989485156811
C         8.12251204039967    1.29612140381241    0.57997233877575
C         8.76026531532790    1.56631836554544    1.91196651489063
C        10.73343031565697    2.03644194868773    4.10716417780489
O        10.55738712650522    2.78644865088864    3.01607051794619
O         8.24340308862327    1.35109473178019    2.97213461420987
O        10.94213012277816    2.50002359600295    5.18200330240405
H        10.70897489889632    0.94512061237153    3.90559558742470
H        10.23642450942479    2.90597488252240    1.03618439359713
H        10.86422778055258    1.32477341113719    1.57544988405180
H         7.25967852120121    0.64786938290905    0.70432792688849
H         8.83470657706306    0.85066992560524   -0.10913450838013
H         7.78870751088651    2.24286123884102    0.15857039881859
13
Properties=species:S:1:pos:R:3 energy:=T -23.710735016228=T gnorm:=T 0.000926116582=T xtb:=T 6.2.3=T (830e466)=T pbc="F F F"
C       10.29082406       2.44983745       0.75908267
C        8.14823454       1.12242191       0.72616624
C        9.31075125       1.81342728       1.37360675
C       10.33918134       1.78971536       4.70834016
O       10.21195897       2.30236528       3.48307367
O        9.18287752       1.66784485       2.73908336
O       11.13552398       2.21326985       5.48174858
H        9.63560480       0.95743952       4.90117021
H       11.09024693       2.92311291       1.29745821
H       10.30561197       2.50888785      -0.31216424
H        7.51394371       0.68811183       1.49420896
H        8.49890882       0.33404117       0.06474771
H        7.56593211       1.83211473       0.14367772
