13
 energy: -23.794007485277 gnorm: 0.000327906098 xtb: 6.2.3 (830e466)
C        10.12080435625530    2.22509481675426    1.79647827307613
C         8.16426664815517    1.09702709871418    0.61801823364545
C         8.78242762954636    1.48499381805982    1.93011825891084
C        10.72082466134654    2.23168105554019    4.07454162254144
O        10.44436624804536    2.93085759005002    2.97058774378619
O         8.30603077242574    1.25021672191532    3.00494046945388
O        10.88788932263808    2.74065136692789    5.13593027710150
H        10.81852865536490    1.14009051478654    3.89659964228836
H        10.89411063644921    1.48060183272073    1.55568464344881
H        10.07673147159196    2.96504685828202    0.99547339562707
H         7.39648650467832    0.34446746451245    0.77550384112375
H         8.91698415679169    0.73200897229827   -0.07538127245640
H         7.70004893671096    1.97986188943842    0.18169487145310
13
Properties=species:S:1:pos:R:3 energy:=T -23.750407077195=T gnorm:=T 0.000663119056=T xtb:=T 6.2.3=T (830e466)=T pbc="F F F"
C        9.59680815       2.76675151       2.64951621
C        8.70611871       0.72758138      -0.25408568
C        8.59785592       2.05172856       3.08529517
C       11.10987367       2.32470232       4.38020421
O       10.83535180       2.94586771       3.23795956
O        7.64866601       1.44678739       3.37517206
O       12.15102706       2.43485383       4.94454954
H       10.26474155       1.69668987       4.74543773
H        9.74187972       0.84626804       0.03554532
H        9.49791905       3.30189932       1.71796184
H        8.15105504       0.27818190       0.55836139
H        8.64852486       0.08775692      -1.12427336
H        8.27967846       1.69353125      -0.49145401
