13
 energy: -23.794007753330 gnorm: 0.000448606838 xtb: 6.2.3 (830e466)
C        10.13541934731287    2.22739392956780    1.83870931641391
C         8.20402213226182    1.17901881031887    0.55028770841401
C         8.78160764400858    1.50574301607161    1.89721673171919
C        10.66413288346052    2.12395977630151    4.13224495588474
O        10.43296096501597    2.87527805085495    3.05245398927292
O         8.26389179960538    1.23778636706992    2.94483478819494
O        10.80958186725415    2.58317010552569    5.21926362434748
H        10.74654705992252    1.03967858821222    3.90989719744571
H        10.90384564419087    1.48095560929339    1.58883928064971
H        10.12813138821075    3.00246521105856    1.07028982752867
H         7.44265229355397    0.41033285770704    0.64857505918130
H         8.97889989877468    0.85919083722582   -0.14106005450797
H         7.73791707642791    2.07772684079249    0.14874757545563
13
Properties=species:S:1:pos:R:3 energy:=T -23.781957733543=T gnorm:=T 0.000844197339=T xtb:=T 6.2.3=T (830e466)=T pbc="F F F"
C       10.41334616       1.88131347       1.71477970
C        8.23458616       1.92898339       0.48276850
C        9.01402514       1.39885907       1.41260229
C       10.37038857       2.26316129       4.04682244
O       10.41266627       2.77425038       2.82088748
O        8.65356465       0.37407793       2.23314098
O       10.28586414       2.93248392       5.02863837
H       10.43227854       1.15427190       4.06965530
H       11.05204073       1.01602731       1.93032757
H       10.81471432       2.44800138       0.87463607
H        7.73867747       0.11772782       2.06473717
H        8.57424720       2.74126997      -0.12898997
H        7.23321063       1.57227217       0.31029410
