13
 energy: -23.794007438666 gnorm: 0.000991349747 xtb: 6.2.3 (830e466)
C        10.19041460704856    2.12153440213972    1.79727040829411
C         8.10253570620638    1.27258957497084    0.61015040523208
C         8.75515259393165    1.59119230574056    1.92384197535356
C        10.75560626016585    2.07254704142193    4.08426389611595
O        10.60542646845411    2.78711477881729    2.96613836440795
O         8.23320017767669    1.45708565904302    2.99508995968822
O        10.99036673148638    2.56730369658069    5.13976299010579
H        10.67960949271484    0.97670015747189    3.92606948725536
H        10.84674965294559    1.26834849488582    1.57224690818205
H        10.26292376237961    2.85021847935032    0.98795791718479
H         7.23687706347401    0.63572338345336    0.76962933253207
H         8.80341673897932    0.79737123645865   -0.07054378374027
H         7.76741074453701    2.20488078966590    0.15812213938818
13
Properties=species:S:1:pos:R:3 energy:=T -23.785831903903=T gnorm:=T 0.000703272585=T xtb:=T 6.2.3=T (830e466)=T pbc="F F F"
C       10.27944161       1.97666357       1.47123795
C        8.83896116       1.81459522       0.97981586
C        8.05587037       0.82518828       1.80196729
C       10.45541774       2.32792213       3.81555189
O       10.31770886       2.83790442       2.59403113
O        8.52098301       0.08743087       2.62158406
O       10.42874155       2.99802596       4.79884920
H       10.60747374       1.22774990       3.82501467
H       10.69566119       0.99486526       1.73086564
H       10.89580029       2.44579716       0.70004987
H        6.97411479       0.82214767       1.56913866
H        8.82935083       1.46401152      -0.05508948
H        8.33016486       2.78030802       1.00698326
