13
 energy: -23.793603036656 gnorm: 0.000376494329 xtb: 6.2.3 (830e466)
C        10.24870277592403    2.04522243868763    1.79146275328241
C         8.15028511476912    1.21319890319981    0.60808816978385
C         8.74017993666374    1.77565121415145    1.87087715934091
C        10.66341163158610    2.14124370887461    4.10851896968860
O        10.72023459432844    2.74454742796812    2.91927688054270
O         8.12149606401569    1.97609415777559    2.87791035464308
O        10.95099659547963    2.68624963353435    5.12513305818598
H        10.36147724489143    1.07370461703450    4.05204427329660
H        10.76780731541945    1.08321945437311    1.67489206236516
H        10.47659577130677    2.67689769365442    0.93049668402933
H         8.49027295286763    0.18609956490354    0.48446572132572
H         8.47220027799825    1.78312002438197   -0.25907679262605
H         7.06593972474973    1.21735116146083    0.67600070614163
13
Properties=species:S:1:pos:R:3 energy:=T -23.818612508848=T gnorm:=T 0.000395606074=T xtb:=T 6.2.3=T (830e466)=T pbc="F F F"
C        9.63899060       1.82377618       1.06085197
C        8.44352184       1.27644531       0.29354226
C        9.44846831       1.71955028       2.54421456
C       10.60218470       2.23384893       4.54740590
O       10.55699110       2.22785711       3.19188631
O        8.50677568       1.27576369       3.12593953
O       11.53286430       2.65996826       5.14505321
H        9.69343940       1.80540596       5.00532939
H       10.55383135       1.28383739       0.80531385
H        9.81430243       2.87546558       0.82216231
H        8.28389815       0.23013783       0.53886008
H        8.61128104       1.36545557      -0.77585789
H        7.54305109       1.82508790       0.55538851
