13
 energy: -23.795628341816 gnorm: 0.000384879606 xtb: 6.2.3 (830e466)
C        10.24888471868937    2.44712265502997    1.75157801577975
C         8.27718223502414    0.92054010490609    1.17918845803270
C         9.68527084129762    1.32150490787732    0.87120720421847
C         9.83703505212238    2.23962784039926    4.07225468630513
O         9.46122484746051    2.71754102529715    2.89042036722656
O        10.36118090774692    0.84368299481451    0.00116480016855
O         9.18317057229777    2.35306124764488    5.05908692713377
H        10.82671765113464    1.72957535183265    4.04789569368108
H        11.28103113510784    2.19712365564399    2.02884780319857
H        10.26753916965472    3.36043667883240    1.14637292432833
H         8.24529385299952    0.43397910912052    2.15331352063854
H         7.90914303877168    0.23436397182284    0.42194828963277
H         7.64582597769296    1.80403045677820    1.23702130965559
13
Properties=species:S:1:pos:R:3 energy:=T -23.795409536661=T gnorm:=T 0.000551088316=T xtb:=T 6.2.3=T (830e466)=T pbc="F F F"
C        9.37090800       1.98841003       2.42650733
C        8.24297038       0.93840975       0.46744137
C        9.43341629       1.26360058       1.30671586
C       10.48812237       2.95417881       4.25547393
O       10.53634714       2.23924395       3.14206343
O       10.59569810       0.75908047       0.83574463
O       11.45502826       3.20461368       4.90801287
H        9.46308546       3.29480369       4.51777063
H       11.31645344       1.01099855       1.43000763
H        8.45781825       2.40185836       2.82431842
H        8.12373031      -0.14199701       0.41031077
H        8.40189290       1.30639761      -0.54456519
H        7.34402910       1.38299155       0.88049831
