13
 energy: -23.782580602167 gnorm: 0.000352942411 xtb: 6.2.3 (830e466)
C         9.57473310753707    1.04131756596817    2.16306598788752
C         8.72773845119656    1.30459907380364    0.91304580113448
C         8.92619687523497    2.90387423182366    3.50059886654238
C        11.00515547506709    1.50569905705273    1.94645159838586
O         9.00158349667408    1.58062900085290    3.34195204385711
O         8.48024368147297    3.40363382070969    4.48368110432331
O        11.58312144270407    2.30439856163882    2.61929475544216
H         9.60877722515465   -0.03991880290410    2.35293056101588
H         9.29247057931220    3.49191979153893    2.63670637673653
H        11.47616473870258    1.01435457809255    1.07373676265125
H         7.70859123664345    0.97151122905285    1.09202185304472
H         9.13489318368625    0.75647424367820    0.06821736574925
H         8.70983050661408    2.36390764869196    0.66830692322954
13
Properties=species:S:1:pos:R:3 energy:=T -23.833564400566=T gnorm:=T 0.000620153064=T xtb:=T 6.2.3=T (830e466)=T pbc="F F F"
C        9.08334069       1.54386209       1.59246502
C        8.92798945       1.05270414       0.15886050
C        9.59035870       2.73603843       5.16183439
C       10.50012969       1.87597018       1.94514538
O        9.19282502       1.69290023       4.90148249
O        9.95398123       3.77471020       5.46697335
O       10.83994655       2.68146925       2.76828970
H        8.77695365       0.75698914       2.29029496
H        8.44947243       2.41107934       1.78735875
H       11.25316712       1.28612745       1.38593736
H        7.89535315       0.77404295      -0.03386045
H        9.55711253       0.18366186      -0.01998980
H        9.20886979       1.83284475      -0.54478164
