13
 energy: -23.784301488736 gnorm: 0.000815813400 xtb: 6.2.3 (830e466)
C         9.58049825966987    1.44523697383294    2.08351307257027
C         8.69753150908602    1.33304173755375    0.83674694297068
C         9.06003843416928    3.14906280894691    3.65892641659705
C        10.98582680678059    0.96929518757907    1.75227739179873
O         9.64123358046847    2.79374351636708    2.51999836928610
O         9.05110883541490    4.26440349728592    4.06877580453734
O        11.26009672530554   -0.15572995039234    1.46139126720753
H         9.16944836325075    0.80891142905937    2.88356055622951
H         8.58454487648179    2.29415482109653    4.19487344424930
H        11.73533162749963    1.77915174925864    1.78793583502045
H         7.67746008414661    1.62481548636931    1.07355160471591
H         8.70825793671467    0.30725288164087    0.47997752548571
H         9.07823296101180    1.98916986140193    0.05825176933148
13
Properties=species:S:1:pos:R:3 energy:=T -23.791565284371=T gnorm:=T 0.000391033680=T xtb:=T 6.2.3=T (830e466)=T pbc="F F F"
C        9.68564301       1.48046455       1.88695170
C        8.58555095       1.63443230       0.88791259
C        8.75148031       3.09366641       3.41244863
C       10.72362517       0.65220750       1.73568163
O        9.68898150       2.21986923       3.07538805
O        8.79977063       3.70232995       4.43982448
O       11.72595286       0.49627460       2.62099638
H       11.56954968       1.07955463       3.37820721
H        7.93521719       3.21568734       2.67882475
H       10.83192709       0.03027912       0.86234247
H        7.61927105       1.36877892       1.31780126
H        8.78199367       0.97215192       0.05072411
H        8.53064689       2.65681353       0.51267675
