13
 energy: -23.784514696561 gnorm: 0.000691758060 xtb: 6.2.3 (830e466)
C         9.61919247511038    1.05539667046367    1.99736798432890
C         8.50781987520150    1.37607373519239    1.00190423661228
C         9.18885620130403    2.58145638559693    3.74836205707076
C        10.92748078554661    1.74786907342243    1.64646127053691
O         9.24041624312962    1.31437542291681    3.34388295584526
O         8.87303340289410    2.90483152437105    4.84756120358987
O        11.26615218604192    2.03868304412187    0.53813377904959
H         9.82915857578416   -0.02380516174215    1.98036208069171
H         9.48109281557586    3.30964831842588    2.95699234174545
H        11.56912133748678    1.93148658542907    2.53085416134503
H         7.64243303319266    0.74633790863515    1.18573821439653
H         8.87639531969585    1.20214313015013   -0.00485710572703
H         8.20824774903655    2.41808336301681    1.08701682051480
13
Properties=species:S:1:pos:R:3 energy:=T -23.758861863654=T gnorm:=T 0.000413547578=T xtb:=T 6.2.3=T (830e466)=T pbc="F F F"
C        9.97528644       0.90564250       1.12085320
C        8.53888326       1.20640479       0.76053229
C        9.35463781       2.85192889       4.19378506
C       10.94814079       1.74809629       0.95469405
O        9.47104717       1.54408177       3.99451901
O        8.99563487       3.33771904       5.21719730
O       11.80913628       2.52369212       0.87199507
H       10.21974628      -0.11959144       1.35316275
H        9.62487489       3.46217631       3.30303061
H        9.75996769       1.31419307       3.08512796
H        7.87569485       0.90711780       1.57031629
H        8.25214797       0.65377732      -0.13335425
H        8.40420169       2.26734154       0.56792067
