13
 energy: -23.791854779778 gnorm: 0.000926995835 xtb: 6.2.3 (830e466)
C         9.31457240624645    1.29727859342119    1.94710160082950
C         8.49831317911088    0.80422709273975    0.75673302757301
C         9.25630178683693    3.06884742558694    3.46723140805136
C        10.79798283772184    1.30288863465235    1.61577057585538
O         8.88377849992579    2.61703523122280    2.28062245729084
O         9.83945242105868    2.45486382452468    4.31039367498452
O        11.48560435526030    2.27637047360781    1.57437919613886
H         9.17356583848506    0.64124910856296    2.81935479237838
H         8.91491888317993    4.11138433899748    3.57062129369025
H        11.18745837236537    0.28906051762265    1.40276960613743
H         7.44322145910434    0.79232262300641    1.01508246089289
H         8.81013448099862   -0.19887808700699    0.48128981892397
H         8.64260547970581    1.47236022306197   -0.08804991274640
13
Properties=species:S:1:pos:R:3 energy:=T -23.709175130140=T gnorm:=T 0.000465026755=T xtb:=T 6.2.3=T (830e466)=T pbc="F F F"
C        9.38518341       1.46156294       1.94318657
C        8.48752884       0.85251992       0.85947364
C        8.98473895       3.06490259       4.42886046
C       10.82336331       1.47276796       1.48395893
O        8.97562063       2.76244087       2.26919170
O        9.06206117       2.00436419       4.84053289
O       11.46235238       2.48561779       1.40560349
H        9.32578649       0.83451205       2.85042881
H        9.70820880       3.36793876       2.05317162
H       11.23519728       0.48727910       1.21323345
H        7.45524649       0.88854090       1.19455469
H        8.76917192      -0.17921879       0.67124191
H        8.57345035       1.42578172      -0.06013817
