13
 energy: -23.784514913040 gnorm: 0.000636630112 xtb: 6.2.3 (830e466)
C         9.54542397790367    1.04087454340126    2.07532909653210
C         8.50888378861889    1.36748378746134    1.00391464578420
C         9.22884715243072    2.78493623319086    3.63676203054651
C        10.93251713423197    1.54909126349505    1.71189563612949
O         9.15396185486717    1.48307216984824    3.36946170865783
O         8.91462473104177    3.25749351026588    4.68106222146249
O        11.33696853988348    1.67995032145611    0.59520838523769
H         9.63599286539991   -0.04991304590181    2.18022085845688
H         9.62531992988488    3.38776509877061    2.78738345007942
H        11.56121591123305    1.75942608773055    2.59958038700468
H         7.57410914145696    0.85596330386110    1.21394896765275
H         8.88899899475659    1.04787456777537    0.03780832183259
H         8.32263597829090    2.43846215864540    0.96710429062342
13
Properties=species:S:1:pos:R:3 energy:=T -23.758100063601=T gnorm:=T 0.000831312839=T xtb:=T 6.2.3=T (830e466)=T pbc="F F F"
C        9.51686503       1.57270767       2.31725390
C        8.55034741       1.51331040       1.12648566
C        9.21924529       2.83669098       3.13397694
C       10.94788769       1.77996511       1.82733265
O        9.42462313       0.45775859       3.16274308
O        9.08324426       2.87385334       4.31518456
O       11.27329315       2.58022263       0.99954648
H        9.42178143      -0.34990099       2.63782918
H        9.15893543       3.73124213       2.48704022
H       11.67094925       1.12086641       2.34126375
H        7.52250493       1.49999168       1.48121107
H        8.73585436       0.61036655       0.54625135
H        8.70396865       2.37540549       0.48356117
