13
 energy: -23.782581422210 gnorm: 0.000526003539 xtb: 6.2.3 (830e466)
C         9.50946170214982    1.05826942735985    2.26381999098031
C         8.64510548005781    1.21410924652169    1.00790993342606
C         9.09851160427707    3.15370772510887    3.32094177596107
C        10.96869471359126    1.34076709956252    1.94897078432092
O         9.03393271817086    1.82116535762185    3.35965448630720
O         8.74438492953285    3.83560477315019    4.22904323767183
O        11.64832408644059    2.15723507027425    2.49310128234355
H         9.44853834976056    0.01936235681982    2.61524276470099
H         9.48565126266163    3.56752839548617    2.36917189159568
H        11.35548073278144    0.69158773832481    1.14077895982478
H         8.96194010462013    0.50294935826969    0.25050249505254
H         7.60554312795274    1.02124089601736    1.26026510221743
H         8.72373118800325    2.21917255548292    0.60049729559760
13
Properties=species:S:1:pos:R:3 energy:=T -23.785826656363=T gnorm:=T 0.000743451580=T xtb:=T 6.2.3=T (830e466)=T pbc="F F F"
C        9.61600756       0.58089612       1.57136118
C        8.54980141       1.67697529       1.63447876
C        8.90715408       3.26769722       3.36427409
C       11.01609259       1.13226500       1.63556246
O        8.37556255       2.11313141       2.96978095
O        8.84383200       3.65409492       4.48806671
O       11.30650307       2.28977709       1.54649486
H        9.47202156      -0.12091577       2.39510632
H        9.40163718       3.83234976       2.54672681
H       11.78841622       0.35095292       1.76730268
H        9.52571294       0.01998232       0.63802627
H        7.58248182       1.28669523       1.30763654
H        8.84407701       2.51879848       0.99508236
