13
 energy: -23.782581964591 gnorm: 0.000341276196 xtb: 6.2.3 (830e466)
C         9.76649737330162    1.08983007174184    2.07102210465713
C         8.64194782573520    1.17240140168777    1.03291202155292
C         8.95703587952316    2.63901338143746    3.69031930712804
C        10.95409771809350    1.93567499200501    1.64358679614132
O         9.32925518246051    1.39436513397323    3.38444337930336
O         8.61470179702751    2.95072195070119    4.78611053849113
O        11.44151227594547    2.81736464940471    2.28358450592163
H        10.11623082150435    0.05090771312409    2.14007562075544
H         8.97348045049745    3.34640022887564    2.83781591903294
H        11.33697022358531    1.64542995564291    0.64610652859908
H         7.79945133858721    0.57193397902727    1.36657271859846
H         8.99152580290419    0.79004260342099    0.07817687212023
H         8.30697331083454    2.19817393895787    0.89884368769834
13
Properties=species:S:1:pos:R:3 energy:=T -23.776104360233=T gnorm:=T 0.000735519282=T xtb:=T 6.2.3=T (830e466)=T pbc="F F F"
C       10.62519077       1.13947008       3.03556375
C        8.56675388       1.65302453       0.10558879
C        9.35708512       2.77339904       4.22004496
C       10.08616143       1.15355629       1.81742219
O       10.26942279       1.79906430       4.18296343
O        9.05826191       3.30976192       5.24445681
O        9.01353670       1.88948809       1.42255117
H       11.47928463       0.50891270       3.22417664
H        8.92018113       3.03569615       3.24341561
H       10.54060794       0.52513247       1.06102678
H        8.24962027       0.61406165      -0.02452785
H        9.34759210       1.88727212      -0.62464251
H        7.71598132       2.31342068      -0.04846978
