10
 energy: -13.494754759595 gnorm: 0.000644141880 xtb: 6.2.3 (830e466)
C         9.03859585411369    2.49998360998250    2.08501291893609
C         7.67848568087927    2.86827472803820    2.59997408294923
C         6.54712085653113    2.35307626047858    2.15985081100725
O        10.00575877841569    3.24975503767387    2.78827690142740
H        10.88335654468387    3.02149674651242    2.46593220071605
H         9.21045450938403    1.42082505189524    2.22536947774756
H         9.09775344981722    2.71065878507766    1.00522815066241
H         7.69856193492788    3.61121516804997    3.38347368652562
H         6.52597683437525    1.61122195166654    1.37751899841981
H         5.59443555687194    2.65027266062503    2.56195277160859
10
Properties=species:S:1:pos:R:3 energy:=T -13.507130345418=T gnorm:=T 0.000151337216=T xtb:=T 6.2.3=T (830e466)=T pbc="F F F"
C        9.58061019       2.38734619       1.91588093
C        7.62134872       3.19495532       2.95056049
C        6.76819757       2.46127781       2.25376688
O        8.97181566       3.23113753       2.86409567
H       10.65205527       2.56009106       1.99953728
H        9.36199252       1.33516028       2.12445046
H        9.24898818       2.62861183       0.90088963
H        7.29216913       3.88782785       3.71343721
H        7.06914696       1.76611612       1.49111961
H        5.71417581       2.54425601       2.43885184
