10
 energy: -13.498324546530 gnorm: 0.000432927993 xtb: 6.2.3 (830e466)
C         9.22211600231567    2.87987716790110    2.52719991660957
C         7.85249649661364    2.39095881705299    2.90113411942442
C         6.81194999148259    2.35851689738004    2.08983281645144
O         9.38051125472716    3.23001486325711    1.17665142884136
H         9.10412140725966    2.48264262834923    0.63445470384238
H         9.45164023563167    3.78662779721145    3.09751520259844
H         9.96048443808091    2.11208470218560    2.81619001990120
H         7.77444740603851    2.04719073050441    3.92382747162406
H         6.87024621916201    2.71634729993820    1.07490125204401
H         5.85238654868814    1.99262909621984    2.41100306866313
10
Properties=species:S:1:pos:R:3 energy:=T -13.516893110811=T gnorm:=T 0.000338909397=T xtb:=T 6.2.3=T (830e466)=T pbc="F F F"
C        9.49026324       2.85245244       2.71940430
C        8.02603002       2.85450760       2.69924031
C        7.25427501       2.15225865       1.61208699
O        8.76373134       3.99189003       2.35731626
H        7.82551372       2.15113808       0.68721278
H       10.02054786       2.91246414       3.66321876
H       10.03056843       2.36789280       1.91404122
H        7.51003534       2.92707535       3.65542386
H        7.04996149       1.12594536       1.90918108
H        6.30947356       2.66126555       1.43558446
