10
 energy: -13.497366138918 gnorm: 0.000516007581 xtb: 6.2.3 (830e466)
C         9.06451694082086    2.19245121615815    2.04399530958047
C         7.81597269276260    2.75675094784147    2.65447414780885
C         6.61540688744135    2.67927721728460    2.11383977715710
O        10.11725714734024    3.12943476098938    1.97407422382711
H        10.24462539558611    3.51575346104918    2.84827730687026
H         9.38296862666576    1.31334370883421    2.63129840303430
H         8.88224980591092    1.87285189288638    1.01608271216721
H         7.95882838339786    3.25346277803254    3.60745661900632
H         6.45295521884060    2.19282906486058    1.16631777260394
H         5.74561890123372    3.09064495206351    2.59679372794443
10
Properties=species:S:1:pos:R:3 energy:=T -13.508785479133=T gnorm:=T 0.000720036652=T xtb:=T 6.2.3=T (830e466)=T pbc="F F F"
C        8.69297566       2.63783173       1.78861743
C        8.08860417       2.04093634       3.02706562
C        7.20754326       2.62240062       1.95954983
O        9.33721336       3.87028027       1.85406535
H       10.15727933       3.77880569       2.35273656
H        8.12189037       0.96898880       3.14922931
H        9.13156261       1.95526691       1.06280548
H        8.18517804       2.59551617       3.94859221
H        6.62402782       1.95813203       1.34213882
H        6.73412538       3.56864144       2.16780940
