10
 energy: -13.497801061824 gnorm: 0.000508108843 xtb: 6.2.3 (830e466)
C         9.09982169087765    2.57137829653945    1.82289641138132
C         7.75488274449279    3.03321458395240    2.30186117605179
C         6.68497759540529    2.26456090963821    2.37114955876813
O        10.15499035354295    3.01136804041490    2.65175566932402
H         9.99693037021788    2.69299434798049    3.54738633605312
H         9.11294169536246    1.47620554837440    1.72290754673463
H         9.30927196061992    3.00964644583589    0.84091026234983
H         7.71946344392696    4.07089010139721    2.60691050175474
H         6.71113932290440    1.22918039170731    2.07011988582219
H         5.73599082264974    2.63735133415974    2.71670265176025
10
Properties=species:S:1:pos:R:3 energy:=T -13.448753662959=T gnorm:=T 0.000694866756=T xtb:=T 6.2.3=T (830e466)=T pbc="F F F"
C        8.83878515       2.06988768       1.08410959
C        7.67470983       2.14395780       1.64854491
C        6.52219034       2.22861277       2.22831933
O        9.32422769       3.78532554       3.99723106
H       10.26018485       3.87564893       3.81155311
H        9.50583248       1.24208445       1.26611694
H        9.18199499       2.82152904       0.39089461
H        8.93785614       3.29854159       3.26219506
H        5.63543670       1.80310376       1.78789472
H        6.39919182       2.72809843       3.17574067
