10
 energy: -13.494777447723 gnorm: 0.000747608071 xtb: 6.2.3 (830e466)
C         9.03547734338650    2.47370169229661    2.08794528409390
C         7.68887692207326    2.85456011307893    2.62810822859336
C         6.54081621609878    2.40950863177744    2.15580024808042
O        10.02099585970857    3.25073071996527    2.73455222233731
H        10.88947940898300    2.99599693194721    2.40952280477108
H         9.21319238292197    1.40103532215449    2.26847190616346
H         9.06440216042760    2.63881064929557    0.99946929185891
H         7.73306383158063    3.53960733957386    3.46191860802127
H         6.49422450254048    1.72534754179581    1.32397428509569
H         5.59967137227921    2.70760105811482    2.58283712098460
10
Properties=species:S:1:pos:R:3 energy:=T -13.509057171334=T gnorm:=T 0.000359298815=T xtb:=T 6.2.3=T (830e466)=T pbc="F F F"
C        9.20954685       2.84884695       2.16290549
C        7.98341346       2.87102232       2.66236373
C        6.86674367       2.01788219       2.14392391
O       10.20917330       3.64227499       2.66010943
H       11.02466731       3.49005187       2.17470791
H        7.11231001       0.95967681       2.23020311
H        9.47348004       2.19877910       1.33622723
H        7.77364314       3.53657335       3.48531697
H        6.67177923       2.22765917       1.09248295
H        5.95544297       2.20413325       2.70435927
