13
 energy: -23.848070102624 gnorm: 0.000355216242 xtb: 6.2.3 (830e466)
C         8.31866686102465    1.30103233263624    1.78528681259253
C        10.54598264443963    2.25611532712778    1.60653706400191
C         9.73543531486238    1.00152589151145    1.32061550394304
C         9.34178319207179    2.36537359599764    3.69912665022680
O        10.43493027175018    2.63193302584284    2.97472512362722
O         8.30813737198037    1.72153707390687    3.14496019593088
O         9.29322197996903    2.69204516694620    4.84498492651262
H         7.87066996533209    2.09146060598390    1.16983843346167
H         7.67466941847534    0.41899518156825    1.75030121940376
H        11.61459141029870    2.10887656403261    1.43300864873272
H        10.19748200094841    3.09001458991156    0.98407780116145
H         9.75266828349286    0.76275107207719    0.25953091944147
H        10.14136128535459    0.16103957245746    1.88677670096392
13
Properties=species:S:1:pos:R:3 energy:=T -23.782038602960=T gnorm:=T 0.000488568843=T xtb:=T 6.2.3=T (830e466)=T pbc="F F F"
C        8.85933588       0.58782331       2.65688374
C       10.69963270       2.01413784       1.95586901
C        9.87449222       0.77593643       1.83256008
C        9.25486430       2.60082042       3.83137758
O       10.30258765       2.84459812       3.05116540
O        8.51856300       1.48319100       3.63685790
O        8.96063480       3.35375215       4.70505301
H        7.78654462       2.53710089      -0.58729627
H        8.19934041      -0.26446365       2.65774298
H       11.75718625       1.76884320       2.11788183
H       10.62639690       2.62545023       1.04599455
H        8.25589448       2.20603261      -1.11091342
H       10.13412679       0.06947744       1.06659362
