13
 energy: -23.848070106262 gnorm: 0.000354189867 xtb: 6.2.3 (830e466)
C         8.57735168339967    0.78668515847645    1.84935557163591
C        10.72396549472163    1.87515051578653    1.51412959437585
C         9.38833679414521    1.59058461994355    0.84491374282648
C         9.44738336425184    2.29919172718880    3.52199253360508
O        10.53604531517555    2.51135149469130    2.77327478210068
O         8.48755537613739    1.47120939328408    3.09394583981150
O         9.32667482837120    2.85856182621683    4.56822339477845
H         7.54432475538895    0.63826607070885    1.52567049562651
H         9.03937940229491   -0.19387465759419    2.02049001208783
H        11.28219809828803    0.94352511253682    1.67143335883148
H        11.34208851806589    2.56285972089189    0.93215326286207
H         8.87764003241615    2.52950973325266    0.62278377528794
H         9.52856633734359    1.03017928461643   -0.07676636382976
13
Properties=species:S:1:pos:R:3 energy:=T -23.660825024282=T gnorm:=T 0.000466319426=T xtb:=T 6.2.3=T (830e466)=T pbc="F F F"
C        8.64595791       0.75097847       1.86846632
C       10.76535095       1.77113876       1.49777458
C        9.44737114       1.46055424       0.76277577
C        8.81398464       3.24806873       3.56452263
O       10.70912544       1.04232275       2.70705757
O        9.33848245       1.02696238       3.07031734
O        9.06690921       3.34029692       4.66531524
H        7.64019072       1.14662370       2.00139205
H        8.60776970      -0.33189469       1.69902864
H       11.65442906       1.41805760       0.97525169
H       10.85276078       2.84459174       1.70463092
H        8.96082274       2.37656550       0.43945183
H        9.59835527       0.80893388      -0.09438456
