6
 energy: -10.616241052354 gnorm: 0.000642530332 xtb: 6.2.3 (830e466)
C        -3.93487306205212    2.51859225451150   -0.48395789118056
O        -3.39329103902974    2.26549249087217   -1.68051996248634
N        -3.53123494077340    1.89510664588848    0.52246223969463
H        -3.78534412139004    2.80584572698046   -2.37485934828808
H        -3.98599721471059    2.13764651394784    1.39416593908653
H        -4.72765962204411    3.29111636779955   -0.49109097682617
6
Properties=species:S:1:pos:R:3 energy:=T -10.579032843267=T gnorm:=T 0.000542938016=T xtb:=T 6.2.3=T (830e466)=T pbc="F F F"
C       -3.00770054       1.66523785      -0.69839957
O       -3.30935723       2.21091264      -1.81132067
N       -2.70115064       1.14716608       0.27239704
H       -4.00563791       2.87515817      -1.73073693
H       -4.93587993       3.24368571       0.59742190
H       -5.39867374       3.77163955       0.25683823
