6
 energy: -10.616241066707 gnorm: 0.000638437693 xtb: 6.2.3 (830e466)
C        -3.93808260285228    2.52425473359888   -0.49564702906916
O        -3.24152273875696    2.08504173290983   -1.54969923873441
N        -3.71322422342170    2.04549315617819    0.63782781896303
H        -3.50365258909148    2.52731259080789   -2.36424155684530
H        -4.27726677795743    2.42470618405875    1.38853071271952
H        -4.68465106792015    3.30710160244645   -0.73047070703368
6
Properties=species:S:1:pos:R:3 energy:=T -10.576716600767=T gnorm:=T 0.000391675030=T xtb:=T 6.2.3=T (830e466)=T pbc="F F F"
C       -4.23794901       2.67268463       0.13238164
O       -2.99750777       1.84827964      -1.55485921
N       -3.34091355       1.88534007      -0.25224881
H       -3.51919850       2.48015401      -2.09147634
H       -4.48058963       2.67142210       1.17928984
H       -4.78224155       3.35602955      -0.52678712
