9
 energy: -9.442265227407 gnorm: 0.000314248998 xtb: 6.2.3 (830e466)
C        -2.48903469841119    0.16876200182901    1.40892320020464
C        -1.14973939725305   -0.46498580896336    1.58457238646647
C        -0.03328994609313   -0.02318021429915    1.03811350305718
H        -1.13594408513494   -1.34752457116076    2.21211218438900
H        -2.89385705273354    0.46557980829196    2.37644107794989
H        -2.42544717563425    1.04577506670146    0.76936789530943
H        -3.18573919487160   -0.54241078683028    0.96517785623093
H         0.91309958969807   -0.51308842944724    1.19240878696026
H        -0.01863803956636    0.85268293387837    0.40958310943221
9
Properties=species:S:1:pos:R:3 6.2.3=T gnorm:=T -9.382943392539=T pbc="F F F" energy:=T xtb:=T 830e466=T 0.000456201283=T
C      -2.80766291       0.84413433       1.11153752 
C       0.06570438      -1.22028099       2.08616769 
C       0.74385773      -1.06825630       1.11537471 
H      -0.53332184      -1.35069566       2.93820486 
H      -3.52127618       0.73065513       1.91734914 
H      -3.17928559       1.57191874       0.40207882 
H      -2.66748510      -0.10695758       0.61470505 
H       1.33985145      -0.93797154       0.26113273 
H      -1.85897194       1.17906387       1.51014950 
