9
 energy: -9.442265225402 gnorm: 0.000315016198 xtb: 6.2.3 (830e466)
C        -2.47943628458265   -0.29492648274149    1.25046304505236
C        -1.20210883614136    0.36158151573746    1.65497897967698
C        -0.00931843418843    0.02350816223185    1.20417272586198
H        -1.30455411087368    1.16789342083591    2.37068657720797
H        -2.97998234445193   -0.71274173023548    2.12393775833238
H        -3.15289785023666    0.43679766729324    0.80425439256975
H        -2.29910070425793   -1.09162888994028    0.53284844734178
H         0.88768702181002    0.52600352986855    1.52409455346293
H         0.12111154292262   -0.77488719304975    0.49146352049388
9
Properties=species:S:1:pos:R:3 6.2.3=T gnorm:=T pbc="F F F" 0.000883879179=T -9.448189861803=T energy:=T xtb:=T 830e466=T
C      -1.98615107      -0.02419692       0.71340912 
C      -1.60546332       0.02183236       2.15993772 
C      -0.54661782      -0.11699719       1.11258731 
H      -1.69022975       0.96233547       2.68220399 
H      -1.83240582      -0.83506425       2.77579577 
H      -2.33009588       0.88547711       0.24614926 
H      -2.47285307      -0.91275620       0.34064078 
H       0.09371041       0.72977285       0.91596570 
H      -0.04849369      -1.06880322       1.01021034 
