9
 energy: -9.442265227295 gnorm: 0.000314251857 xtb: 6.2.3 (830e466)
C        -2.50441566662599   -0.12321923115792    1.42163550076738
C        -1.05197264436162   -0.09992732321363    1.76232270332528
C        -0.08145796630745    0.11616079144106    0.89533011803374
H        -0.82005738088464   -0.27733386298949    2.80520973427438
H        -2.66010964468423    0.06180216240476    0.36156341797298
H        -3.03680358140975    0.63584383119246    1.99474975570906
H        -2.93490552107404   -1.09112507882219    1.67836449805552
H        -0.28419958208284    0.29533290199370   -0.14831471396578
H         0.95531198743056    0.12396580915125    1.18604898582744
9
Properties=species:S:1:pos:R:3 6.2.3=T gnorm:=T 0.000223468512=T pbc="F F F" energy:=T xtb:=T 830e466=T -9.448190798778=T
C      -2.06014030       0.48122876       1.21834497 
C      -1.43460447      -0.71373631       1.86672410 
C      -0.64496186       0.11284574       0.90093669 
H      -1.18433513      -0.65521084       2.91499532 
H      -2.81316979       0.31806005       0.46245417 
H      -2.23743835       1.35834110       1.82192279 
H      -1.75990560      -1.69449509       1.55486749 
H      -0.43013681      -0.30227753      -0.07195567 
H       0.14608231       0.73674414       1.28862015 
