9
 energy: -9.442265228205 gnorm: 0.000313931222 xtb: 6.2.3 (830e466)
C        -2.50591514007954   -0.00228825410907    1.43275597602682
C        -1.05247997338555   -0.04888791961673    1.76675469526731
C        -0.07908542229854   -0.08447659079635    0.87708882692983
H        -0.82241074310808   -0.05231388664255    2.82502096817094
H        -2.65964157294864   -0.00145404141421    0.35637610834570
H        -2.95977976970961    0.89415292484780    1.85521693101434
H        -3.01772510664799   -0.86354385249875    1.86213057376233
H        -0.27995162870631   -0.08202392780973   -0.18217888389112
H         0.95828935688428   -0.11756445196043    1.16384480437385
9
Properties=species:S:1:pos:R:3 6.2.3=T gnorm:=T pbc="F F F" 0.000531172493=T energy:=T xtb:=T 830e466=T -9.448190423834=T
C      -2.04709333      -0.54985332       1.12654352 
C      -1.45006682       0.52700871       1.97706859 
C      -0.64217796      -0.09590523       0.88235818 
H      -1.19598068       0.29043967       2.99937949 
H      -2.80606074      -0.27603548       0.41008053 
H      -1.80067790       1.53903979       1.84270306 
H      -2.20100319      -1.52320199       1.56617842 
H      -0.44048140       0.48863510      -0.00222609 
H       0.16484201      -0.75852725       1.15492429 
