9
 energy: -9.440189676206 gnorm: 0.000321047520 xtb: 6.2.3 (830e466)
C        -2.51287843963391   -0.05135250120209    1.29844969493738
C        -1.10720544727829   -0.07981677814909    1.81690119636709
C        -0.03673744888403    0.00176252398790    1.04907515805828
H        -0.99429681221353   -0.17356339938636    2.88888615104970
H        -3.23170589224129   -0.13232860795658    2.10912939702763
H        -2.70171386547769    0.87646953800199    0.75959654909441
H        -2.67982356320403   -0.87412027197090    0.60414486293499
H        -0.11509414994168    0.09597399958634   -0.02220336084636
H         0.96085561887444   -0.02152450291121    1.45303035137689
9
Properties=species:S:1:pos:R:3 -9.358769750161=T 6.2.3=T gnorm:=T pbc="F F F" 0.000331563561=T energy:=T xtb:=T 830e466=T
C      -2.30587167       0.00839716       0.65477068 
C      -1.01193792       0.02354917       0.66553743 
C       0.28119590       0.03801857       0.68626129 
H      -2.50819139      -0.22716506       3.27852448 
H      -2.82355284      -0.29425715       3.98929623 
H      -2.88483706       0.91552347       0.72609439 
H      -2.86187606      -0.91140726       0.56544574 
H       0.86201067       0.12637793      -0.21763867 
H       0.83446036      -0.03753683       1.60871842 
