9
 energy: -9.440189677113 gnorm: 0.000320682628 xtb: 6.2.3 (830e466)
C        -2.50996723661258   -0.03989216008759    1.24121152943058
C        -1.13265794126283   -0.08150424345488    1.83011387952565
C        -0.02397409925775   -0.01239000753827    1.11726250338875
H        -1.07503591774385   -0.17418053016236    2.90657991395068
H        -3.26963825470415   -0.11190438308180    2.01463621128509
H        -2.66183905980035    0.88867416064294    0.69205263999681
H        -2.65000468498005   -0.86236630866278    0.54063926193395
H        -0.04712147441185    0.08031331647222    0.04324044262400
H         0.95163866877342   -0.04505984412748    1.57116361786449
9
Properties=species:S:1:pos:R:3 6.2.3=T gnorm:=T pbc="F F F" energy:=T xtb:=T 830e466=T -9.358121472244=T 0.000904530349=T
C      -2.42617552      -1.03327916       0.93213619 
C      -1.19664992      -0.63959788       0.85456726 
C       0.03404805      -0.24914439       0.77827828 
H      -1.90572501       1.86917114       3.29813215 
H      -3.13598269      -0.54980203       1.58497900 
H      -2.14160855       2.26206195       2.67131439 
H      -2.79619541      -1.86134924       0.34929303 
H       0.34994020       0.49830538       0.06847479 
H       0.79974885      -0.65467576       1.41972491 
