9
 energy: -9.440189673885 gnorm: 0.000321901758 xtb: 6.2.3 (830e466)
C        -2.50988549171205   -0.04253690730248    1.24006860246699
C        -1.13299843675339   -0.08966342635537    1.82954307262446
C        -0.02389575472259   -0.00335624416271    1.11922207837355
H        -1.07606586168728   -0.20182927350509    2.90419004002467
H        -3.27002509577184   -0.13152683796075    2.01126251178842
H        -2.66475979830072    0.89531233196197    0.70778103937346
H        -2.64611220275565   -0.85261694211894    0.52446600652080
H        -0.04635395167009    0.10872079012116    0.04703374331433
H         0.95139659337360   -0.04080349067781    1.57344290551333
9
Properties=species:S:1:pos:R:3 0.000836693070=T 6.2.3=T gnorm:=T pbc="F F F" energy:=T -9.358121971180=T xtb:=T 830e466=T
C      -2.44302464       0.99588596       1.12281904 
C      -1.20668629       0.64527384       0.97699752 
C       0.03019279       0.29679535       0.83024900 
H      -1.87316318      -2.30734834       2.90530987 
H      -3.14477527       0.38705888       1.67084002 
H      -2.82616209       1.91346916       0.70596733 
H      -2.10216371      -2.57742817       2.21422546 
H       0.35719123      -0.29836741      -0.00747733 
H       0.78989116       0.58636072       1.53807910 
