9
 energy: -9.440189677127 gnorm: 0.000320667318 xtb: 6.2.3 (830e466)
C        -2.50329145442325   -0.03465974303271    1.17790383495189
C        -1.16143362031379   -0.08103401260623    1.84332502484604
C        -0.01415263760400   -0.01974263779319    1.19363012478517
H        -1.16478896827664   -0.17037794772645    2.92160826709763
H        -3.30552855900882   -0.10034000563115    1.90767995299943
H        -2.61938357852569    0.89278126133177    0.61821486601487
H        -2.60796614303382   -0.85879700184388    0.47312263590411
H         0.02348592736799    0.06943506532305    0.11971958977133
H         0.93426903381803   -0.05565497802120    1.70168570362953
9
Properties=species:S:1:pos:R:3 6.2.3=T gnorm:=T -9.366852874457=T pbc="F F F" energy:=T xtb:=T 0.000441232762=T 830e466=T
C      -2.83309203      -0.02282465       1.01113935 
C      -1.43563660       0.01762267       0.64466166 
C      -0.27584975       0.04907065       0.35221094 
H       0.31285174      -0.16218668       2.92368023 
H      -2.93189022      -0.11193761       2.09291365 
H      -3.33002952       0.89019233       0.68388435 
H      -3.31644163      -0.87811133       0.53946198 
H       0.73770858       0.07835398       0.08495247 
H       0.65358944      -0.21856936       3.62398538 
