9
 energy: -9.440189675502 gnorm: 0.000321163695 xtb: 6.2.3 (830e466)
C        -2.44074755929553   -0.39932117180948    1.15521119758300
C        -1.24403961399447    0.49795628163526    1.24632613901480
C        -0.04399204620324    0.09072140423780    1.61532412580259
H        -1.40375948295277    1.53645580641462    0.98806902744766
H        -2.65259032682220   -0.85170507151702    2.12337881275666
H        -3.31985692493415    0.15091199725177    0.83135659810362
H        -2.25816608894861   -1.20763144965811    0.44798183667528
H         0.79639538946614    0.76125224739325    1.67056257141794
H         0.14816665368483   -0.93705004394810    1.87878969119846
9
Properties=species:S:1:pos:R:3 -9.366874808263=T 6.2.3=T gnorm:=T pbc="F F F" 0.000333125123=T energy:=T xtb:=T 830e466=T
C      -2.61434698      -0.54696902       1.14001048 
C      -1.22035914      -0.75518966       1.46164118 
C      -0.06579148      -0.92447365       1.72630308 
H      -0.28038968       1.82457776       1.30924274 
H      -3.22557633      -0.68099924       2.03230129 
H      -2.76168863       0.46340237       0.75804632 
H      -2.93181403      -1.26282268       0.38194324 
H      -0.26508054       2.59551908       1.18894809 
H       0.94645681      -1.07145497       1.95856358 
