48
 energy: -65.771258051239 gnorm: 0.000775301638 xtb: 6.4.0 (d4b70c2)
Si       -3.13868775657088    0.82625261942046    0.21343786508459
C        -3.65712209009346    2.55706713092185   -0.39198361839686
H        -2.81073691857423    3.23740564409322   -0.41962838851876
H        -4.41272296197740    2.99291019250449    0.25359125267095
H        -4.07168203389169    2.50917666131219   -1.39542273893731
C        -4.55925696986072   -0.42633703862972    0.17022060312723
H        -5.08641907580226   -0.39385992267730   -0.77805860371142
H        -5.28011672446269   -0.22858724990004    0.95666459243069
H        -4.18375757971113   -1.43681522945168    0.29833815206373
C        -2.30461375034447    0.93222357056127    1.92517502286393
O        -1.06047594198108   -2.36806892573589   -0.92098844161668
H        -1.47058903294137    1.62894578694702    1.91820302460444
H        -1.92318984069921   -0.04110539499763    2.22362371089644
H        -2.99990746773348    1.26048340702050    2.69105436199321
C        -0.02039348335007   -1.76468088550912   -1.09789840268894
C         1.28290563893190   -2.38413654025557   -0.56502846645581
H         0.94406817094197   -3.07076157034101    0.21467214440826
H         1.68354055295022   -3.00180148516409   -1.37373465273153
C         0.06456808740026   -0.42362829599342   -1.65048039350557
C        -0.85273662647560    0.45890265942121   -1.14155069317049
O        -2.08630189049102    0.12577437071177   -0.87591593722756
C         1.42072816727686    0.17861159862495   -1.97121386138892
C         1.99333572384100   -0.12911487250680    0.42200349564775
C         2.44593570221681   -1.51154432239628   -0.00003488071896
C         1.76800777381900    0.20864782426848    1.86746717188185
O        -0.52336311898102    1.71462012067620   -0.76593277708730
C         3.18774820228521   -2.27536635389310    1.10583799537027
C         2.63890327927635   -0.58845916158060    2.83197047891870
H         0.71697741210688   -0.01587830245338    2.08691023677913
H         1.90993171155427    1.28011898445731    2.02504576193725
C         2.56722914617532   -2.06843670615458    2.48046080781443
H         4.22164859637706   -1.92207261952333    1.14195382804494
H         3.21427226311805   -3.33708998516480    0.85288361381625
H         2.29598389057273   -0.41777317370512    3.85434239162025
H         3.67544647643746   -0.25002708764887    2.76478990138288
H         3.10800950333866   -2.66078160126389    3.22102012916163
H         1.52577426981313   -2.39607790288350    2.47981243729853
C         1.35038761880404    1.40952907523045   -2.88695515186047
C         1.65152869383775    0.68860484779632   -0.57437203891178
H         2.10431919238836   -0.57367660817966   -2.35094932364610
C         0.89398598082496    1.98462960157444   -0.61993615855804
C         1.37344180012847    2.61028317268912   -1.92846857619882
H         2.38519020040915    2.99524955514347   -1.79990943525708
H         0.72161064191197    3.42109037705699   -2.24818906636371
H         0.43124008992692    1.39532957045983   -3.47319120538350
H         2.19279293449829    1.43477852583998   -3.57693658222836
H         0.97999774371008    2.63078450216842    0.25448356194666
H         3.16782379906564   -1.37144856288904   -0.81218314720503
