12
-41.307002168314284
C        1.419026       1.303632      -2.313618
C        0.471446       1.953706      -1.249371
C        1.416550      -0.776275      -1.200738
O        0.890304      -0.018978      -2.150791
O        0.545928       3.366030      -1.312317
O        2.018807      -0.388846      -0.238086
H        1.451727       3.627123      -1.521421
H        2.360881       1.482589      -1.770107
H        1.328221       1.342965      -3.380305
H        1.166435      -1.812129      -1.486508
H       -0.585178       1.779652      -1.477105
H        0.678104       1.607329      -0.233996
12
-41.36992513486439
C        1.418990       1.303681      -2.313177
C        0.471549       1.954104      -1.249453
C        1.416495      -0.776451      -1.200799
O        0.890365      -0.019042      -2.150575
O        0.545743       3.366494      -1.312333
O        2.018691      -0.389195      -0.237965
H        1.451427       3.627756      -1.521939
H        2.361057       1.482370      -1.769916
H        1.328187       1.343232      -3.379877
H        1.166381      -1.812252      -1.486576
H       -0.585065       1.779961      -1.477205
H        0.678390       1.607690      -0.234069
