  48
        -65.78572891
 Si         2.9646481543        0.2725950175       -0.0657286966
 C          4.1529884441       -1.1840307459        0.2650948551
 H          3.8017056846       -2.1057134857       -0.1888277812
 H          4.2760549285       -1.3692454025        1.3275196258
 H          5.1346180217       -0.9742212746       -0.1451482898
 C          2.7276627954        0.4389897512       -1.9464430461
 H          3.6856313698        0.5164889689       -2.4510152063
 H          2.1517434626        1.3244457215       -2.1920798688
 H          2.2103936926       -0.4231736333       -2.3609895865
 C          3.6237797842        1.8399352470        0.7825995487
 O          1.6269277888       -0.3357464450        0.6914979231
 H          4.6219526485        2.0807880135        0.4313674430
 H          3.6757892414        1.7107936949        1.8605979438
 H          2.9836659434        2.6899114797        0.5763813712
 C          0.3916075915       -0.0922577183        1.1139397269
 C         -0.2239689820       -1.2565662868        1.8438012554
 H          0.5596831168       -2.0011378574        1.9794250325
 H         -0.5500323038       -0.9377855636        2.8342349433
 C         -0.3749189818        0.9884660446        0.8460788635
 C         -0.1265989160        1.8353264601       -0.3364103960
 O         -1.1025363163        1.8172894717       -1.2720510058
 C         -1.8383609604        0.9317853371        1.2416670617
 C         -1.9678607860       -1.1699261945       -0.0939261796
 C         -1.4404032319       -1.9366563968        1.1000174354
 C         -2.0328956226       -1.9224873621       -1.3864366212
 O          0.8840781494        2.4492019515       -0.5710930138
 C         -1.0525819478       -3.3501762375        0.6561925679
 C         -0.6411108141       -2.4837813147       -1.6960186158
 H         -2.3519836216       -1.2662352252       -2.1958432317
 H         -2.7558414315       -2.7390710229       -1.3158079997
 C         -0.0825355637       -3.3094286551       -0.5234313777
 H         -1.9521908085       -3.9009120981        0.3753521039
 H         -0.5961725032       -3.8869520350        1.4902761401
 H          0.0232900231       -1.6425139558       -1.9016949161
 H         -0.6950070732       -3.0900114035       -2.6017080776
 H          0.1254988969       -4.3315334569       -0.8445180737
 H          0.8604801615       -2.8732987905       -0.1922347605
 C         -2.5662530769        2.2796066329        1.1414734081
 C         -2.2191022094        0.1324218897        0.0243276081
 H         -1.9968897104        0.4471724255        2.1997222045
 C         -2.3847845305        1.2258858253       -0.9938706391
 C         -3.2203451381        2.2668897999       -0.2487805839
 H         -4.2559547719        1.9305960046       -0.1968830035
 H         -3.1845474166        3.2360623996       -0.7427263754
 H         -1.8592349353        3.1050665401        1.2338244127
 H         -3.3096362672        2.3839912108        1.9305733680
 H         -2.7882619158        0.9375554633       -1.9648303509
 H         -2.2468174823       -2.0178674317        1.8381292556
