# B3LYP/6-31+G* IRC=(CALCALL, maxpoints=40, StepSize=15, maxcyc=100, Report=Cartesians)

pp_14_0 IRC

0 1
C    0.45082200       0.45517000      -0.52591200     
C   -0.70242700       0.89809600       0.37716700     
C   -1.93065300       0.02767500       0.25781700     
O    1.65594200       0.84041400      -0.19333300     
O    2.01248700      -1.01047600       0.31434900     
O   -1.96183200      -1.02998500      -0.33658500     
H    2.74117200      -1.60385800       0.62102900     
H    0.63787600      -0.74803300      -0.30390800     
H    0.25334000       0.43459200      -1.61230500     
H   -2.83954800       0.40849900       0.77099600     
H   -0.98073200       1.94244300       0.16806100     
H   -0.37133900       0.88107600       1.42624700     

