# B3LYP/6-31+G* IRC=(CALCALL, maxpoints=40, StepSize=15, maxcyc=100, Report=Cartesians)

pp_17_0 IRC

0 1
C    0.72107100       0.41033900      -0.09067200     
C   -0.88573500      -0.95888900      -0.21842100     
C   -1.86220800      -0.05088200       0.41033100     
O    1.23646900      -0.75843600       0.03691400     
O    2.71938900       0.50045200      -0.04801300     
O   -2.49374400       0.79576800      -0.20502700     
H    2.99449300       0.49243500       0.89009100     
H    0.57926100       0.86515900      -1.07372700     
H    0.48841900       1.02378600       0.78449700     
H   -1.99434800      -0.16736900       1.50502600     
H   -0.68368500      -1.88249600       0.31735300     
H   -0.91982700      -1.03719500      -1.30166400     

