# B3LYP/6-31+G* IRC=(CALCALL, maxpoints=40, StepSize=15, maxcyc=100, Report=Cartesians)

pp_10_0 IRC

0 1
C    0.46961400      -1.71657500      -0.59151100     
C    1.71447600       0.31987100       0.43419500     
C    0.44281700       0.71176900       0.06914000     
O   -0.52904700      -0.38029700       0.62528400     
O   -1.86120300      -0.10764000       0.19838100     
O   -0.10489100       1.55374200      -0.61821900     
H   -1.70429700       0.70701200      -0.35413300     
H   -0.55149900      -1.90253500      -0.90656100     
H    0.85803200      -2.33775500       0.20560600     
H    1.16938900      -1.41954000      -1.35971500     
H    2.56347300       0.81398100      -0.02350000     
H    1.86459300      -0.27799000       1.32378600     

