# B3LYP/6-31+G* IRC=(CALCALL, maxpoints=40, StepSize=15, maxcyc=100, Report=Cartesians)

pp_13_1 IRC

0 1
C    0.30904500      -0.53254200       0.22481300     
C   -0.46988000       0.69689600       0.17325000     
C   -1.86952900       0.54923600      -0.09429600     
O    1.55840200      -0.69056400      -0.29354600     
O    2.28589300       0.56401200      -0.13370100     
O   -2.46668900      -0.53268700      -0.18230200     
H    3.18375800       0.19829500      -0.02234300     
H    0.62094000      -0.88959700       1.61090200     
H   -0.29461300      -1.42107100       0.02403800     
H   -2.42887400       1.49893200      -0.21221200     
H    0.02562900       1.65715400       0.22474900     
H    0.05449000      -0.05135000       1.42865100     

