# B3LYP/6-31+G* IRC=(CALCALL, maxpoints=40, StepSize=15, maxcyc=100, Report=Cartesians)

pp_16_0 IRC

0 1
C   -0.36620000      -0.36718300      -0.34245100     
C    0.31024600       0.85646500       0.19730700     
C    2.38157800       0.45940500      -0.14709800     
O   -1.61287600      -0.70234200       0.29682300     
O   -2.56126000       0.36236400      -0.03368200     
O    2.60927000      -0.66440500       0.10630400     
H   -3.28268200      -0.17637300      -0.40473000     
H   -0.53409700      -0.30019200      -1.42605600     
H    0.22612200      -1.26960300      -0.12869600     
H    1.87921900       1.41054900      -0.34237600     
H    0.36299700       0.87708300       1.29119100     
H   -0.08637900       1.80147900      -0.19144200     

