# B3LYP/6-31+G* IRC=(CALCALL, maxpoints=40, StepSize=15, maxcyc=100, Report=Cartesians)

pp_25_0 IRC

0 1
C    1.24762400       0.71256600      -0.36775900     
C   -0.02466400       1.19809400       0.34275800     
C   -1.02310000       0.07368000       0.18376100     
O    1.48189700      -0.61031800       0.09686600     
O    0.22104600      -1.28501800      -0.11132200     
O   -2.04244900      -0.04778700      -0.40149200     
H   -0.41952500      -1.19268400       1.08744800     
H    1.12034100       0.72131200      -1.45794300     
H    2.13125000       1.29284100      -0.08869100     
H   -1.02826600      -0.66052400       1.55507800     
H   -0.46008100       2.08893700      -0.12024600     
H    0.17316500       1.38906700       1.39937600     

