# B3LYP/6-31+G* IRC=(CALCALL, maxpoints=40, StepSize=15, maxcyc=100, Report=Cartesians)

pp_21_1 IRC

0 1
C   -0.41396100      -0.98026800      -0.34424800     
C    0.85908300      -0.66213800       0.27599400     
C    1.78899900       0.26305600      -0.33349400     
O   -1.15347800       0.08754900       0.39518200     
O   -2.98577200       0.58501800      -0.14638000     
O    2.86712000       0.58174700       0.16095500     
H   -3.36582500       0.40644100       0.73366800     
H   -0.50476900      -0.80404700      -1.41805500     
H   -0.89239000      -1.91221900      -0.04967900     
H    1.49019900       0.66532800      -1.32740600     
H    1.09390000      -1.05588700       1.26010100     
H   -1.04879900       0.94196200      -0.06619900     

