# B3LYP/6-31+G* IRC=(CALCALL, maxpoints=40, StepSize=15, maxcyc=100, Report=Cartesians)

pp_20_1 IRC

0 1
C    0.40431600      -0.83445100      -0.22142800     
C   -0.54156200       0.31600900      -0.46470800     
C   -2.01898600       0.38332800       0.21039700     
O    1.70579800      -0.29546200      -0.48189500     
O    2.04479600       0.59877200       0.62584200     
O   -2.10674500      -0.79439100       0.38829400     
H    2.89285600       0.20010900       0.89521800     
H    0.33554000      -1.22947600       0.79718600     
H    0.34816000      -1.66542100      -0.93804600     
H   -1.37332000       3.71239500      -0.42517900     
H   -0.63664900       0.59435500      -1.52197100     
H   -1.77998500       3.12737300      -0.21070300     

