# B3LYP/6-31+G* IRC=(CALCALL, maxpoints=40, StepSize=15, maxcyc=100, Report=Cartesians)

pp_3_0 IRC

0 1
C   -0.58006200      -0.10598200      -0.85583500     
C    1.60433900       1.24834800       0.23851400     
C    1.40568300      -0.12837100       0.28527100     
O   -1.69189400       0.44839100      -0.37960200     
O   -2.23777000      -0.43035000       0.64497900     
O    2.08687600      -1.12007800      -0.00101400     
H   -2.88092700       0.18170200       1.05225900     
H   -0.19245200       0.48758900      -1.67346000     
H   -0.52124900      -1.19109000      -0.90210000     
H    0.35364900      -0.32134300       0.73304900     
H    2.59848300       1.66912800       0.10448100     
H    0.80502700       1.90634400       0.56317100     

