# B3LYP/6-31+G* IRC=(CALCALL, maxpoints=60, StepSize=10, maxcyc=100, Report=Cartesians)

pp_7_0 IRC

0 1
C    0.73509600       1.20624100      -2.74287900     
C    0.41604700       0.06398500      -1.97738600     
C    0.98387900       0.74570900      -0.36853600     
O    1.84696500       1.80672800      -1.25371200     
O    1.99393600       3.07012400      -0.55781200     
O    1.60709800       0.00806400       0.36767500     
H    2.94966700       3.06194900      -0.36208700     
H    0.04468600       2.04169800      -2.81821900     
H    1.56514100       1.22101300      -3.44060100     
H    0.13555900       1.37258700      -0.04465700     
H    1.00981400      -0.83261800      -2.13762900     
H   -0.63276600      -0.12816000      -1.75745600     

