# B3LYP/6-31+G* IRC=(CALCALL, maxpoints=40, StepSize=15, maxcyc=100, Report=Cartesians)

pp_9_3 IRC

0 1
C    0.19481500      -0.43670800       0.24909700     
C   -0.94357000       1.39012500      -0.01623500     
C   -1.21209700      -0.25902200      -0.33987900     
O    1.19994300      -0.46423000      -0.49019600     
O    2.53163800       0.17650000       0.29535500     
O   -2.18748800      -0.74610800       0.30700700     
H    3.20552100      -0.29998700      -0.22803400     
H    0.28506600      -0.46220300       1.33590200     
H   -0.11739300       1.82974100      -0.58031500     
H   -1.17964000      -0.31972200      -1.44719800     
H   -1.90388300       1.75594900      -0.38890900     
H   -0.87729900       1.60055300       1.05332500     

