# B3LYP/6-31G** OPT=(TS, CALCALL, NOEIGEN, maxcycles=100) Freq 

pp_2_1 TS

0 1
C   -2.51601100      -0.38534000       1.34067300     
C   -1.23225700       0.22944200       1.82925300     
C   -0.17221200      -0.00015400       0.86706300     
H   -0.97162900       0.14877200       2.87460100     
H   -2.87522800      -0.13607300       0.36401200     
H   -1.80787700       1.26698100       1.78637700     
H   -3.01737400      -1.19916400       1.83186200     
H   -0.28668600       0.22246600      -0.17300700     
H    0.82574500      -0.18090300       1.22858200     

