# B3LYP/6-31G** OPT=(TS, CALCALL, NOEIGEN, maxcycles=100) Freq 

pp_2_0 TS

0 1
C   -2.35536600      -0.16091400       0.93337800     
C   -1.37448800       0.23363300       1.91711300     
C   -0.18341100      -0.08445500       1.18957400     
H   -1.45267200       1.06479700       2.58357200     
H   -2.21986200      -0.85693100       2.64048000     
H   -2.97338500       0.63130800       0.50452700     
H   -2.41470800      -1.10122600       0.42912000     
H    0.65370600       0.56082900       1.43264600     
H    0.04018200      -0.99306000       0.68030700     

