# B3LYP/6-31G** OPT=(TS, CALCALL, NOEIGEN, maxcycles=100) Freq 

pp_2_2 TS

0 1
C   -2.53080200       0.26887100       1.40449200     
C   -1.22440700      -0.38760000       1.76898300     
C   -0.16703500       0.03144400       0.86789600     
H   -0.95490900      -0.49092800       2.81416200     
H   -2.88787200       0.18179100       0.40049500     
H   -3.03910600       0.97895400       2.03034500     
H   -1.76798400      -1.41729700       1.54545600     
H   -0.27059300      -0.00879000      -0.19580100     
H    0.81839600       0.17661000       1.28032000     

