# B3LYP/6-31G** OPT=(TS, CALCALL, NOEIGEN, maxcycles=100) Freq 

pp_3_2 TS

0 1
C   -2.49082200       0.51065500       1.27078100     
C   -1.19661100       0.24337800       1.25774500     
C    0.07119000       0.17300400       0.98329100     
H   -1.44961900      -1.10491200       2.85298400     
H   -3.19769200       0.15799900       2.00113500     
H   -2.85285300       1.42006300       0.79575100     
H   -2.50119500      -1.66993300       1.25103100     
H    0.41115700      -0.11044200      -0.00075700     
H    0.83204700       0.32286200       1.72615000     

