# B3LYP/6-31G** OPT=(TS, CALCALL, NOEIGEN, maxcycles=100) Freq 

pp_3_1 TS

0 1
C   -2.47183200      -0.60473800       1.17399100     
C   -1.20729300      -0.24855600       1.17090600     
C    0.07452700      -0.17952700       0.95719700     
H   -1.50049700       0.72644900       2.91403500     
H   -3.15632400      -0.43407500       1.98487300     
H   -2.52657900       1.47526500       1.60307700     
H   -2.82375600      -1.39575900       0.51795500     
H    0.47483200       0.28904200       0.07108000     
H    0.78944000      -0.51550200       1.68701700     

