14
 energy: -33.446190481017 gnorm: 0.000288471012 xtb: 6.2.3 (830e466)
C        -0.35546333857394    0.15684047735876    1.19347129785264
C        -1.71445519584478   -2.67179329083247    3.16047455113201
C        -2.15808908603814   -2.53306879908340    4.60241584914399
C        -0.76022899162523   -1.31834038335450    1.49911735048238
O        -1.28216813193658   -1.37710702289928    2.69877973178099
F         0.19264544495552    0.27588282995345   -0.01219141237633
F         0.52957499139010    0.61054357848422    2.08920714682970
F        -1.41857773676559    0.96875648056902    1.23909622360584
O        -0.59532624440908   -2.21366125241791    0.72558496655094
H        -2.53194034407605   -3.01015427790897    2.51600054722992
H        -0.87940913455799   -3.37187039685177    3.05673612801431
H        -2.48540044571222   -3.49943579083421    4.97407533319759
H        -1.33562818521385   -2.17587273789762    5.21552996009776
H        -2.97959360159217   -1.82630941428531    4.67591232645826
14
Properties=species:S:1:pos:R:3 6.2.3=T gnorm:=T 0.000267175079=T pbc="F F F" -33.428090761551=T energy:=T xtb:=T 830e466=T
C      -0.82347583      -0.25197784       2.13988879 
C      -1.44884343      -3.17149938       1.66953381 
C      -1.56208625      -1.38030150       4.26735857 
C      -1.29355897      -1.57849180       2.79032501 
O      -2.35221087      -2.14801958       2.04300803 
F      -0.57809193      -0.39300709       0.83684118 
F       0.29891120       0.20319010       2.70846287 
F      -1.74308592       0.71128521       2.26892962 
O      -0.40729622      -2.63206112       2.46152231 
H      -1.21742634      -3.16836163       0.59771236 
H      -1.76790140      -4.16605502       2.00194724 
H      -1.88927363      -2.32257734       4.69860760 
H      -0.64812373      -1.05447598       4.75724394 
H      -2.34159668      -0.63323702       4.39282867 
