13
 energy: -16.684426654872 gnorm: 0.000441000096 xtb: 6.2.3 (830e466)
C        -0.80564969442550   -1.21848368564401   -0.22355959969998
C         1.90848950307100    0.39207174996427   -0.19410445014449
C        -0.61469771920782    0.24891761195934   -0.00307680083662
C         0.52823318654348    0.92677569421639    0.00923975810294
O        -1.82269027323556    0.86880069026580    0.19957524330047
H        -1.68636735829613    1.81261906459397    0.34053888668136
H         0.48622917738081    1.99679146571810    0.18545178885581
H         0.13599267927223   -1.72800901599483   -0.38908221472746
H        -1.45392402576296   -1.37030724450228   -1.08486079359622
H        -1.30135102615154   -1.65018346508916    0.64425640623499
H         2.37634509900794    0.88172387276568   -1.04878390086599
H         1.91268620713432   -0.67893964037474   -0.36742421304739
H         2.52301424466973    0.60215290212147    0.68187988974259
13
Properties=species:S:1:pos:R:3 -16.629481848064=T gnorm:=T pbc="F F F" energy:=T 0.000240430767=T xtb:=T 6.2.3=T 830e466=T
C      -1.40408421      -1.66272857       0.15774820 
C       2.54052307       1.02381997      -0.42583829 
C      -0.04257088       1.50173447      -0.10844336 
C       1.12492202       1.27929714      -0.25135373 
O      -1.31510754       1.78244212       0.04540722 
H      -1.82687499       0.96806196       0.11989803 
H      -0.80425253      -1.19240141       0.92724721 
H      -1.24198279      -2.73210372       0.18833557 
H      -1.10609466      -1.28796541      -0.81363772 
H      -2.45500278      -1.46179306       0.32835620 
H       2.92898529       1.61474687      -1.25490232 
H       2.69973605      -0.03223655      -0.64307349 
H       3.08811395       1.28305619       0.48030649 
