14
 energy: -33.446190481017 gnorm: 0.000288471012 xtb: 6.2.3 (830e466)
C        -0.35546333857394    0.15684047735876    1.19347129785264
C        -1.71445519584478   -2.67179329083247    3.16047455113201
C        -2.15808908603814   -2.53306879908340    4.60241584914399
C        -0.76022899162523   -1.31834038335450    1.49911735048238
O        -1.28216813193658   -1.37710702289928    2.69877973178099
F         0.19264544495552    0.27588282995345   -0.01219141237633
F         0.52957499139010    0.61054357848422    2.08920714682970
F        -1.41857773676559    0.96875648056902    1.23909622360584
O        -0.59532624440908   -2.21366125241791    0.72558496655094
H        -2.53194034407605   -3.01015427790897    2.51600054722992
H        -0.87940913455799   -3.37187039685177    3.05673612801431
H        -2.48540044571222   -3.49943579083421    4.97407533319759
H        -1.33562818521385   -2.17587273789762    5.21552996009776
H        -2.97959360159217   -1.82630941428531    4.67591232645826
14
Properties=species:S:1:pos:R:3 6.2.3=T gnorm:=T -33.429497782686=T pbc="F F F" energy:=T xtb:=T 830e466=T 0.000814552198=T
C      -0.37320123       0.38278798       1.12211985 
C      -2.62173532      -3.05042619       3.32606778 
C      -1.57818904      -2.47108706       4.28871398 
C      -0.72527946      -2.42924718       3.03903207 
O      -1.67857908      -2.95647855       2.24043111 
F       0.09955054       1.61301166       1.29326687 
F      -1.38216251       0.21194605       1.97899392 
F      -0.86356912       0.29723178      -0.10940350 
O       0.37259315      -2.06699863       2.75207621 
H      -3.49366409      -2.42561957       3.13403469 
H      -2.91846987      -4.08534380       3.49604114 
H       0.40915378      -0.37246030       1.29750460 
H      -1.21751172      -3.13806901       5.06665057 
H      -1.80299603      -1.49483720       4.70868071 
