14
 energy: -33.446190481017 gnorm: 0.000288471012 xtb: 6.2.3 (830e466)
C        -0.35546333857394    0.15684047735876    1.19347129785264
C        -1.71445519584478   -2.67179329083247    3.16047455113201
C        -2.15808908603814   -2.53306879908340    4.60241584914399
C        -0.76022899162523   -1.31834038335450    1.49911735048238
O        -1.28216813193658   -1.37710702289928    2.69877973178099
F         0.19264544495552    0.27588282995345   -0.01219141237633
F         0.52957499139010    0.61054357848422    2.08920714682970
F        -1.41857773676559    0.96875648056902    1.23909622360584
O        -0.59532624440908   -2.21366125241791    0.72558496655094
H        -2.53194034407605   -3.01015427790897    2.51600054722992
H        -0.87940913455799   -3.37187039685177    3.05673612801431
H        -2.48540044571222   -3.49943579083421    4.97407533319759
H        -1.33562818521385   -2.17587273789762    5.21552996009776
H        -2.97959360159217   -1.82630941428531    4.67591232645826
14
Properties=species:S:1:pos:R:3 -33.367700091676=T 6.2.3=T gnorm:=T pbc="F F F" energy:=T xtb:=T 830e466=T 0.000551709458=T
C      -0.48286308      -0.07055278       1.40055378 
C      -2.49690671      -3.18127318       4.14136677 
C      -1.90725354      -1.86049346       4.34662911 
C      -0.15383040      -1.45184925       0.77677437 
O      -1.53053873      -2.67042996       3.26976737 
F      -0.11360734       0.95819666       0.64054255 
F       0.12278701       0.06595105       2.58841049 
F      -1.80104434       0.04277989       1.61858649 
O       0.34908001      -1.57618811      -0.29264878 
H      -3.49767173      -3.25885250       3.73355531 
H      -2.17677048      -4.01120251       4.75991097 
H      -0.45371045      -2.27000702       1.45094437 
H      -1.15305325      -1.72422370       5.11207995 
H      -2.47867697      -0.97744514       4.08773725 
