16
 energy: -21.762264338725 gnorm: 0.000848720324 xtb: 6.2.3 (830e466)
C        -0.66952146182541   -1.25218062848268    0.07067508619387
C         1.93112050838486    0.33723778713947   -0.36577711786516
C        -0.49969691743364    0.22646695511025    0.24984005768258
C         0.62022357349145    0.91361093100843    0.05845807455199
O        -1.66522350735773    0.83789017189975    0.65838162469372
O        -3.70035213955664   -0.81775064277914    1.92509642175777
H        -1.52801416669231    1.78945552110191    0.73460610898861
H        -3.10592797329485   -0.24747690674901    1.42049173759180
H        -3.43133248907641   -0.74397715678837    2.84228771011664
H         0.61676454764508    1.98597763206458    0.21834418892881
H        -0.10900600917793   -1.79701927328493    0.82763649986565
H        -0.31854887951836   -1.56234193266767   -0.90992782421472
H        -1.72047811553223   -1.50819688655736    0.16455043049138
H         2.25818081160004    0.79351120593461   -1.30034297827508
H         1.86813550680988   -0.73691007763271   -0.50459251358039
H         2.69248671153338    0.54660330068257    0.38598249307574
16
Properties=species:S:1:pos:R:3 6.2.3=T gnorm:=T pbc="F F F" 0.000512481599=T energy:=T xtb:=T 830e466=T -21.670489097465=T
C      -0.93048340      -1.46812232      -0.43083441 
C       1.45116801       0.47231363       0.27000561 
C      -0.82102647      -0.01075088      -0.73982011 
C       0.18118769       0.80810075      -0.44335300 
O      -1.50870188       0.86195488       2.29554989 
O      -2.23315720      -0.34789088       2.47787423 
H      -1.11579155       0.73462246       1.41249065 
H      -1.68059846       0.39625065      -1.25896358 
H      -2.63166200      -0.21269375       3.34660830 
H       0.10495292       1.84715360      -0.74113375 
H      -0.00006338      -1.88176024      -0.05391632 
H      -1.21684333      -2.01422856      -1.32849954 
H      -1.70875905      -1.62791427       0.31603472 
H       2.30286695       0.66603901      -0.38195525 
H       1.48519180      -0.56547681       0.58643769 
H       1.56052935       1.10730272       1.14918487 
