13
 energy: -16.684426654872 gnorm: 0.000441000096 xtb: 6.2.3 (830e466)
C        -0.80564969442550   -1.21848368564401   -0.22355959969998
C         1.90848950307100    0.39207174996427   -0.19410445014449
C        -0.61469771920782    0.24891761195934   -0.00307680083662
C         0.52823318654348    0.92677569421639    0.00923975810294
O        -1.82269027323556    0.86880069026580    0.19957524330047
H        -1.68636735829613    1.81261906459397    0.34053888668136
H         0.48622917738081    1.99679146571810    0.18545178885581
H         0.13599267927223   -1.72800901599483   -0.38908221472746
H        -1.45392402576296   -1.37030724450228   -1.08486079359622
H        -1.30135102615154   -1.65018346508916    0.64425640623499
H         2.37634509900794    0.88172387276568   -1.04878390086599
H         1.91268620713432   -0.67893964037474   -0.36742421304739
H         2.52301424466973    0.60215290212147    0.68187988974259
13
Properties=species:S:1:pos:R:3 0.000173141680=T 6.2.3=T gnorm:=T pbc="F F F" -16.680212074614=T energy:=T xtb:=T 830e466=T
C       0.13110272      -1.75389604      -0.00881816 
C       0.96776964      -0.47655355       0.07464689 
C      -0.00093827       1.68708143      -0.69040460 
C       0.09950747       0.73269285       0.22126820 
O      -0.78691930       2.79205133      -0.60756612 
H      -1.27919514       2.77572919       0.22274064 
H      -0.48967323       0.78813356       1.12918352 
H       0.77439725      -2.62524123      -0.10626763 
H      -0.53198900      -1.71390701      -0.86991559 
H      -0.47530665      -1.87177027       0.88664206 
H       0.56001051       1.67743001      -1.61346372 
H       1.57927490      -0.38010158      -0.82381238 
H       1.63826910      -0.54771868       0.93581688 
