14
 energy: -33.446190481017 gnorm: 0.000288471012 xtb: 6.2.3 (830e466)
C        -0.35546333857394    0.15684047735876    1.19347129785264
C        -1.71445519584478   -2.67179329083247    3.16047455113201
C        -2.15808908603814   -2.53306879908340    4.60241584914399
C        -0.76022899162523   -1.31834038335450    1.49911735048238
O        -1.28216813193658   -1.37710702289928    2.69877973178099
F         0.19264544495552    0.27588282995345   -0.01219141237633
F         0.52957499139010    0.61054357848422    2.08920714682970
F        -1.41857773676559    0.96875648056902    1.23909622360584
O        -0.59532624440908   -2.21366125241791    0.72558496655094
H        -2.53194034407605   -3.01015427790897    2.51600054722992
H        -0.87940913455799   -3.37187039685177    3.05673612801431
H        -2.48540044571222   -3.49943579083421    4.97407533319759
H        -1.33562818521385   -2.17587273789762    5.21552996009776
H        -2.97959360159217   -1.82630941428531    4.67591232645826
14
Properties=species:S:1:pos:R:3 0.000470287967=T gnorm:=T pbc="F F F" -33.333068745832=T energy:=T xtb:=T 6.2.3=T 830e466=T
C      -1.31860428      -0.87827212       2.30305083 
C      -1.51357928      -2.23346217       2.98583088 
C      -1.97520693      -2.04651957       4.42798059 
C      -0.90717167      -1.04650929       0.82297688 
O       0.35682377      -1.41173681       0.54758776 
F       1.20552622      -1.59111621       1.64658558 
F      -0.40982126      -0.11332350       2.96343381 
F      -2.47128123      -0.16629044       2.31942719 
O      -1.64745222      -0.92596953      -0.09939135 
H      -2.26080592      -2.78440576       2.41131298 
H      -0.56811631      -2.77739117       2.96044038 
H      -2.12671475      -3.01729980       4.89054436 
H      -1.22708028      -1.49971764       4.99640749 
H      -2.91057586      -1.49357600       4.45802261 
