14
 energy: -33.446190481017 gnorm: 0.000288471012 xtb: 6.2.3 (830e466)
C        -0.35546333857394    0.15684047735876    1.19347129785264
C        -1.71445519584478   -2.67179329083247    3.16047455113201
C        -2.15808908603814   -2.53306879908340    4.60241584914399
C        -0.76022899162523   -1.31834038335450    1.49911735048238
O        -1.28216813193658   -1.37710702289928    2.69877973178099
F         0.19264544495552    0.27588282995345   -0.01219141237633
F         0.52957499139010    0.61054357848422    2.08920714682970
F        -1.41857773676559    0.96875648056902    1.23909622360584
O        -0.59532624440908   -2.21366125241791    0.72558496655094
H        -2.53194034407605   -3.01015427790897    2.51600054722992
H        -0.87940913455799   -3.37187039685177    3.05673612801431
H        -2.48540044571222   -3.49943579083421    4.97407533319759
H        -1.33562818521385   -2.17587273789762    5.21552996009776
H        -2.97959360159217   -1.82630941428531    4.67591232645826
14
Properties=species:S:1:pos:R:3 6.2.3=T gnorm:=T 0.000302113240=T pbc="F F F" energy:=T xtb:=T 830e466=T -33.433318637811=T
C      -0.74127527      -0.31675165       1.87677106 
C      -2.57611369      -2.64468566       2.97501471 
C      -1.69040321      -1.72575172       3.82499992 
C      -0.79095619      -1.69181405       2.58477963 
O      -1.64987306      -2.57142873       1.87679104 
F      -0.00792553      -0.36640122       0.75660700 
F      -0.19145683       0.61894091       2.66265776 
F      -1.95707979       0.12371693       1.54172402 
O       0.48092333      -2.16760982       2.78731782 
H      -3.54579492      -2.23232593       2.69286658 
H      -2.68312842      -3.66979194       3.33127739 
H       0.90311100      -2.37247730       1.94159883 
H      -1.20304080      -2.19844529       4.67174076 
H      -2.12104661      -0.77076454       4.11006348 
