14
 energy: -33.446190481017 gnorm: 0.000288471012 xtb: 6.2.3 (830e466)
C        -0.35546333857394    0.15684047735876    1.19347129785264
C        -1.71445519584478   -2.67179329083247    3.16047455113201
C        -2.15808908603814   -2.53306879908340    4.60241584914399
C        -0.76022899162523   -1.31834038335450    1.49911735048238
O        -1.28216813193658   -1.37710702289928    2.69877973178099
F         0.19264544495552    0.27588282995345   -0.01219141237633
F         0.52957499139010    0.61054357848422    2.08920714682970
F        -1.41857773676559    0.96875648056902    1.23909622360584
O        -0.59532624440908   -2.21366125241791    0.72558496655094
H        -2.53194034407605   -3.01015427790897    2.51600054722992
H        -0.87940913455799   -3.37187039685177    3.05673612801431
H        -2.48540044571222   -3.49943579083421    4.97407533319759
H        -1.33562818521385   -2.17587273789762    5.21552996009776
H        -2.97959360159217   -1.82630941428531    4.67591232645826
14
Properties=species:S:1:pos:R:3 6.2.3=T gnorm:=T 0.000581789370=T pbc="F F F" energy:=T xtb:=T 830e466=T -33.500517168210=T
C      -1.64842299      -0.68671995       2.38097488 
C      -2.14386162      -2.02714021       2.87778217 
C      -2.19697604      -2.05489849       4.40126730 
C       1.28857938      -1.78005489       0.69464759 
O       1.93044916      -0.95300786       0.24008017 
F      -1.59140150      -0.63246697       1.03724925 
F      -0.40965950      -0.39775053       2.81631104 
F      -2.42974462       0.33247296       2.76511040 
O       0.65323450      -2.61831229       1.14795046 
H      -3.13358681      -2.18774586       2.44720018 
H      -1.46153731      -2.78713667       2.49441856 
H      -2.54780773      -3.02524802       4.73916914 
H      -1.20893601      -1.87745451       4.81870975 
H      -2.87438893      -1.29012671       4.77333913 
