18
 energy: -37.883476368367 gnorm: 0.000824241627 xtb: 6.2.3 (830e466)
C        -0.09130028073375   -0.20633172376408    1.61271759563723
C        -1.35859107585902   -2.34098208137728    4.34648012716846
C        -2.86639298726572   -2.14249420544230    4.34047620595728
C        -0.64232584258562   -1.50050541608564    2.27630600139060
N         1.45299979170669   -2.32072502356449    2.22608539241297
O        -0.69568258518026   -1.31879663065819    3.58913433301964
F         0.44403885170812   -0.44106127541225    0.41213550004957
F         0.83850123304316    0.41695029119317    2.34496881923261
F        -1.08957034382250    0.67216667161228    1.43133269759889
O        -1.18749440852894   -2.36044249858783    1.63878816661719
H        -1.10148401262206   -3.31542057323282    3.92089165522635
H        -0.94999605114018   -2.24884508563481    5.35430342620452
H         1.45179468534941   -2.83854270711230    1.35595004743637
H         1.60767883425315   -2.96540672614282    2.99065014203306
H         2.21239205744875   -1.65090382412354    2.21001178165724
H        -3.33351638434276   -2.88448909806907    4.98131635688809
H        -3.11549902161444   -1.14986070271632    4.70495067632738
H        -3.25116245981034   -2.25541939087306    3.33100107513663
18
Properties=species:S:1:pos:R:3 -37.828606124647=T 6.2.3=T gnorm:=T pbc="F F F" energy:=T 0.000488338635=T 830e466=T xtb:=T
C      -0.60243897       0.22579571       1.15100863 
C      -1.52395276      -3.38155590       4.09969521 
C      -1.90147821      -1.98237634       4.56735240 
C       0.01048917      -1.15654202       1.50897190 
N       1.64606800      -2.13276127       2.85046132 
O       0.91715754      -0.98517980       2.44995789 
F       0.30161103       1.02200652       0.57385553 
F      -1.04882917       0.85280555       2.24517088 
F      -1.62581299       0.09328944       0.31368862 
O      -0.31236379      -2.19033059       0.99946213 
H      -1.36287588      -3.40304296       3.02333846 
H      -2.32347347      -4.08173881       4.32853125 
H      -0.62109539      -3.72966449       4.60002269 
H       1.19454138      -2.94808725       2.42948848 
H       1.57928095      -2.17130907       3.86492325 
H      -2.09874872      -1.97837801       5.63692511 
H      -1.10683454      -1.26461682       4.37006027 
H      -2.79685419      -1.63942388       4.05458599 
