8
 energy: -25.562435104092 gnorm: 0.000411842817 xtb: 6.2.3 (830e466)
S         0.33923202299181   -2.38155004131476   -0.16797502753263
O        -0.39388813917957   -3.79988256093716    2.14733651170356
Cl        0.43831432773538   -4.36660213213364   -0.52957943200213
Cl        1.72123889511940   -2.07401596075933    1.27379646138272
O         0.82821738248866   -1.73570054413774   -1.33556366212714
O        -0.95504784099394   -2.03141880169619    0.30931694326991
H        -1.19027926894453   -3.27077989903759    2.04430363620702
H        -0.48889737921726   -4.31476005998327    2.95277456909878
8
Properties=species:S:1:pos:R:3 6.2.3=T gnorm:=T -25.577333853938=T pbc="F F F" energy:=T xtb:=T 830e466=T 0.000674573729=T
S      -0.04977532      -2.18508783       0.88049338 
O      -0.58898182      -2.75234088       2.24701879 
Cl       0.60581128      -6.25238742      -0.62979890 
Cl       1.50990264      -1.08193860       1.52400201 
O       0.47791659      -3.25854566       0.11508611 
O      -1.01403284      -1.29922390       0.33412263 
H      -1.24376982      -2.14736891       2.59679598 
H       0.60181929      -4.99781679      -0.37330999 
