14
 energy: -33.446190481017 gnorm: 0.000288471012 xtb: 6.2.3 (830e466)
C        -0.35546333857394    0.15684047735876    1.19347129785264
C        -1.71445519584478   -2.67179329083247    3.16047455113201
C        -2.15808908603814   -2.53306879908340    4.60241584914399
C        -0.76022899162523   -1.31834038335450    1.49911735048238
O        -1.28216813193658   -1.37710702289928    2.69877973178099
F         0.19264544495552    0.27588282995345   -0.01219141237633
F         0.52957499139010    0.61054357848422    2.08920714682970
F        -1.41857773676559    0.96875648056902    1.23909622360584
O        -0.59532624440908   -2.21366125241791    0.72558496655094
H        -2.53194034407605   -3.01015427790897    2.51600054722992
H        -0.87940913455799   -3.37187039685177    3.05673612801431
H        -2.48540044571222   -3.49943579083421    4.97407533319759
H        -1.33562818521385   -2.17587273789762    5.21552996009776
H        -2.97959360159217   -1.82630941428531    4.67591232645826
14
Properties=species:S:1:pos:R:3 0.000520467598=T gnorm:=T pbc="F F F" energy:=T -33.424315425762=T xtb:=T 6.2.3=T 830e466=T
C      -2.19476699      -0.34417182       1.64689526 
C      -1.30313552      -2.67219263       3.13092077 
C      -0.44843211      -2.09296965       4.25964986 
C      -1.06184135      -1.28789260       1.13598336 
O      -0.77420770      -2.36912306       1.84628462 
F       0.64797218      -2.88101472       4.47095867 
F      -2.01409365       0.05119552       2.93484347 
F      -2.20626048       0.76804854       0.89930565 
O      -0.52677472      -1.06775206       0.09410044 
H      -2.33708815      -2.33666960       3.23730298 
H      -1.26661658      -3.76370443       3.19143363 
H      -3.18806643      -0.82080322       1.57086207 
H      -1.01689910      -2.07864865       5.19438859 
H      -0.08384940      -1.08989161       4.02128060 
