11
 energy: -12.882207741310 gnorm: 0.000304374997 xtb: 6.2.3 (830e466)
C         0.88208742718673    0.27083832924338    1.85743588692534
C        -2.04476849532593    0.11907847549199    1.27855750089213
C        -1.15945874290680   -0.91614523140615    1.90505296392752
N         0.06861908507979   -0.87769172092761    2.15843360027051
H        -1.66155760829310   -1.84006324325094    2.18067981735632
H         0.89638242196103    0.48729666744238    0.78578993875307
H         0.53463381220549    1.16427490610894    2.38338770912448
H         1.89711302716409    0.04463366416106    2.18285862030713
H        -2.84829161883784    0.36928605558909    1.97007148741593
H        -1.50094611001896    1.02343239177789    1.02043348656801
H        -2.49842319821449   -0.29494029423005    0.37898898845956
11
Properties=species:S:1:pos:R:3 0.000452769203=T 6.2.3=T gnorm:=T pbc="F F F" -12.876937293080=T energy:=T xtb:=T 830e466=T
C       0.46332910       0.10490871       2.31691633 
C      -1.93638015       0.19700977       1.33376296 
C      -0.74497420      -0.58924807       1.82142884 
N       0.48522598      -0.62160836       1.06429280 
H      -0.99288437      -1.54533166       2.27188210 
H       0.47382783      -0.02296512       0.24378324 
H       0.48124632       1.18926353       2.30537117 
H       1.05010876      -0.34230681       3.10756917 
H      -2.61691595       0.39845096       2.15897008 
H      -1.62203624       1.14754111       0.90496427 
H      -2.47515708      -0.36571406       0.57274905 
