10
 energy: -38.840751705755 gnorm: 0.000511863801 xtb: 6.2.3 (830e466)
C        -0.40576096791171    0.08571619955737   -7.12829939016140
C        -0.94813492244498   -0.89167412579198   -4.72865810807977
C        -0.03940216548076   -0.23258554267273   -5.67621281410556
O         0.07112756431225   -1.57562461203996   -5.30648042321721
F         0.67597418214422    0.22752780177513   -7.88248370827672
F        -1.15282284208700   -0.88108160734801   -7.64752807726648
F        -1.10113589001310    1.22179604419797   -7.19455888358661
F        -0.88874192332292   -0.63965508840014   -3.43361785415489
F        -2.19029498384041   -1.20694547491014   -5.06105522058463
F         0.91470194864441    0.58191640563248   -5.19790552056672
10
Properties=species:S:1:pos:R:3 0.000682211624=T -38.726454003443=T gnorm:=T pbc="F F F" energy:=T xtb:=T 6.2.3=T 830e466=T
C      -0.91914067       0.56395787      -7.01573342 
C      -0.55942047      -0.99043901      -5.07457426 
C      -0.51443010       0.36755372      -5.76100475 
O      -0.03083164      -2.03166357      -5.79894035 
F       1.13623249      -1.63971691      -6.45188466 
F      -1.36541243      -0.40053697      -7.78624488 
F      -0.91970955       1.71734174      -7.63535948 
F       0.01333042      -0.89577961      -3.86377598 
F      -1.83246065      -1.37795394      -4.85925586 
F      -0.07264740       1.37662668      -5.01002635 
