10
 energy: -38.840749214737 gnorm: 0.000468777788 xtb: 6.2.3 (830e466)
C        -0.28965973692038    0.12427394184003   -7.09926110654271
C        -1.04761379880662   -0.95700121257408   -4.80363424815468
C        -0.08537075460286   -0.20223301330426   -5.61746414121141
O         0.08977659371055   -1.54087419424436   -5.25763211740609
F         0.86589560963778    0.34503525686492   -7.71220911155559
F        -0.90700920738098   -0.87426461102531   -7.72011358856314
F        -1.03979041150487    1.21839755618000   -7.23529108960453
F        -1.17215661178080   -0.73434416284780   -3.50779047809559
F        -2.20761866344385   -1.36413656924504   -5.29511065672976
F         0.72954698109202    0.67430700835590   -5.00863346213651
10
Properties=species:S:1:pos:R:3 6.2.3=T gnorm:=T 0.000687350290=T pbc="F F F" energy:=T xtb:=T 830e466=T -38.731740382041=T
C      -0.32750011       0.25325301      -7.24010744 
C      -0.96168576      -1.11054328      -5.19304547 
C      -0.29574366      -0.10510752      -5.76849645 
O      -1.00867177      -1.51831940      -3.90956548 
F       0.89355711       0.19070034      -7.77744792 
F      -1.11335645      -0.55748277      -7.94519490 
F      -0.77383451       1.49863048      -7.42295219 
F      -0.22882060      -0.75131080      -3.06467621 
F      -1.74282117      -1.91989265      -5.88358362 
F       0.49487691       0.70923258      -5.05207032 
