11
 energy: -12.880605455533 gnorm: 0.000450839857 xtb: 6.2.3 (830e466)
C         1.15854775337981   -0.06274591159507    2.08123800131144
C        -2.46281378327642    0.24197391454508    1.23862769771769
C        -1.10225191710058   -0.29890023663234    1.52696027517317
N        -0.14902216633499    0.46823191754102    1.80487105593389
H        -0.99420444950064   -1.39495441536434    1.48013711782160
H         1.55239769931647   -0.62113518412296    1.22726329512160
H         1.82219533715130    0.77386273866365    2.29486281481662
H         1.14337098899194   -0.73499649731908    2.94381579320507
H        -2.82221878714719    0.81179978321719    2.09347458243261
H        -2.41685944198996    0.92445114864827    0.39201717183134
H        -3.16395123348974   -0.55768725758141    1.01864219463496
11
Properties=species:S:1:pos:R:3 6.2.3=T gnorm:=T pbc="F F F" -12.873463958809=T 0.000647066460=T energy:=T xtb:=T 830e466=T
C       1.16661173       0.25184488       2.41706827 
C      -2.19241637       0.16290218       1.10794438 
C      -0.85789095      -0.46930510       1.48254826 
N       0.01147731       0.53870902       2.03587132 
H      -1.01532845      -1.27302574       2.21326165 
H      -0.39443815      -0.92079611       0.59594405 
H       1.78212115       1.04136837       2.82408724 
H       1.61813111      -0.74749189       2.37204711 
H      -2.65547258       0.59961376       1.98865557 
H      -2.03646659       0.95076438       0.37599800 
H      -2.86113820      -0.58468373       0.68848415 
