13
 energy: -16.684426654872 gnorm: 0.000441000096 xtb: 6.2.3 (830e466)
C        -0.80564969442550   -1.21848368564401   -0.22355959969998
C         1.90848950307100    0.39207174996427   -0.19410445014449
C        -0.61469771920782    0.24891761195934   -0.00307680083662
C         0.52823318654348    0.92677569421639    0.00923975810294
O        -1.82269027323556    0.86880069026580    0.19957524330047
H        -1.68636735829613    1.81261906459397    0.34053888668136
H         0.48622917738081    1.99679146571810    0.18545178885581
H         0.13599267927223   -1.72800901599483   -0.38908221472746
H        -1.45392402576296   -1.37030724450228   -1.08486079359622
H        -1.30135102615154   -1.65018346508916    0.64425640623499
H         2.37634509900794    0.88172387276568   -1.04878390086599
H         1.91268620713432   -0.67893964037474   -0.36742421304739
H         2.52301424466973    0.60215290212147    0.68187988974259
13
Properties=species:S:1:pos:R:3 -16.685433676804=T gnorm:=T pbc="F F F" energy:=T 0.000741003867=T xtb:=T 6.2.3=T 830e466=T
C      -0.92433892      -1.13736542      -0.02577947 
C       1.76524076       0.44369558      -0.18544380 
C      -0.84715907       0.36852150      -0.00450712 
C       0.41749398       1.11229320      -0.07997065 
O      -0.46121746       1.04486197      -1.17027803 
H      -1.66798266       0.84643502       0.53040297 
H       0.44407698       2.08858169       0.40409943 
H      -0.21142536      -1.55153903      -0.73247638 
H      -1.92306538      -1.45136859      -0.32207115 
H      -0.71396732      -1.52997189       0.96766727 
H       2.49410007       1.14514731      -0.58395288 
H       1.72059508      -0.41534987      -0.84741035 
H       2.09395930       0.11998853       0.79977014 
