9
 energy: -9.440189675013 gnorm: 0.000321425654 xtb: 6.2.3 (830e466)
C        -2.47915816925080   -0.02964045955860    1.05247679665078
C        -1.22085765931784   -0.08541144117287    1.86431931495128
C        -0.00757789649604   -0.02349198214425    1.34834259854062
H        -1.34580277564017   -0.18247625082122    2.93467237161608
H        -3.35861351129478   -0.09773561141474    1.68682130422212
H        -2.52905541275197    0.90216501328803    0.49022594784893
H        -2.50601793816807   -0.84836371041305    0.33425294632676
H         0.15094155062275    0.07312479151737    0.28617967411375
H         0.87753181229692   -0.06648034928067    1.95960904572969
9
Properties=species:S:1:pos:R:3 -9.383059536199=T 6.2.3=T gnorm:=T pbc="F F F" energy:=T xtb:=T 830e466=T 0.000301681130=T
C      -2.83059738       0.02900170       0.34912726 
C      -0.06180137      -0.16394034       2.88317112 
C       0.93158306      -0.08870015       2.22504115 
H      -0.93474497      -0.22618451       3.46306762 
H      -3.56456251      -0.04918689       1.14081597 
H      -2.97454321       0.96034468      -0.18294366 
H      -2.95215758      -0.79983971      -0.33604974 
H      -1.83421953       0.00484375       0.77249959 
H       1.80243350      -0.02464852       1.64217070 
