11
 energy: -17.523343636513 gnorm: 0.000291824622 xtb: 6.2.3 (830e466)
C         0.87975558049488    0.14054090757062    1.83884682823732
C         0.38257771458959   -3.02506462426046    2.24539475407768
C        -0.26525675307137    0.59031856871996    1.35691502043565
O         1.46655891648019   -1.00165091604708    1.36938575925175
O         0.99816914504223   -3.11829558300886    3.26826242912317
H         2.29046750014415   -1.17159870196623    1.83803114219531
H         1.40617299811023    0.65695222228828    2.63214182247983
H         0.71670846515925   -3.49102609348420    1.30529429071800
H        -0.58695824149321   -2.50722234326407    2.17932629075740
H        -0.70613915785128    1.49091135016948    1.73772472354758
H        -0.78005616760481    0.07102521328245    0.56897693917646
11
Properties=species:S:1:pos:R:3 6.2.3=T gnorm:=T pbc="F F F" energy:=T -17.537460492385=T xtb:=T 830e466=T 0.000622967166=T
C       0.25144004      -0.20727154       2.46960845 
C       0.12063342      -1.65149432       2.65823594 
C      -0.46830146       0.45257387       1.57048532 
O       1.96658901      -2.16634754       0.67177591 
O       0.76649232      -2.30965746       3.43596745 
H       2.60303637      -2.00389031       1.37156994 
H       0.97735460       0.29101119       3.09785520 
H       1.78699835      -3.10909842       0.68231610 
H      -0.65306349      -2.11768156       2.01834290 
H      -0.36787124       1.51419218       1.42138618 
H      -1.18130792      -0.05744608       0.94275660 
