11
 energy: -17.530219965757 gnorm: 0.000596287544 xtb: 6.2.3 (830e466)
C         1.38038048553827    0.54480630721558    1.73819396441791
C        -0.41524346236290   -3.20325143588166    2.65343183504485
C         0.53381019959738    0.42941964066113    0.72870210302222
O         1.89181148659622   -0.47266428164131    2.46191276355989
O         0.36317368015053   -2.85866747927954    1.81418901893812
H         1.53919764648938   -1.31372883216006    2.12217607685584
H         1.74821994787171    1.50028304243313    2.08688640594138
H        -0.42205424452975   -2.77243846161374    3.66666884073418
H        -1.17689115080458   -3.97650036042943    2.47097207724078
H         0.17285479856448    1.29216369628842    0.20286706871705
H         0.18675061288929   -0.53463183559249    0.39428984552844
11
Properties=species:S:1:pos:R:3 6.2.3=T gnorm:=T -17.535384942349=T pbc="F F F" energy:=T 0.000811451963=T 830e466=T xtb:=T
C       1.67385433      -0.30511464       1.56756380 
C       0.53042470      -2.42597373       1.72340101 
C       0.63635721      -1.09645022       1.19480251 
O       2.62016780      -0.66865005       2.39862228 
O       1.32933016      -2.92141112       2.50972665 
H       2.42288171      -1.60607207       2.68357931 
H       1.78836953       0.70598217       1.19003333 
H      -2.63727379       0.06824350       2.64367661 
H      -0.33689748      -3.01195237       1.37892869 
H      -2.11505623       0.63565334       2.54135142 
H      -0.11014794      -0.73946481       0.50860439 
