6
 energy: -6.271260485212 gnorm: 0.000275495943 xtb: 6.2.3 (830e466)
C        -1.07634756476850    3.79115426713464    0.21837848882879
C        -0.98792611035986    4.42430861422581    1.36905935592721
H        -0.76003339603054    2.76703448453868    0.10395743854798
H        -1.47034534437519    4.26531027996953   -0.66588081720583
H        -1.30515499056864    5.44812172385496    1.48372261468670
H        -0.59478259389727    3.94986063027639    2.25354291921516
6
Properties=species:S:1:pos:R:3 6.2.3=T gnorm:=T pbc="F F F" energy:=T -6.189645034625=T 0.000768244735=T 830e466=T xtb:=T
C      -0.10556889       4.54279473      -0.05011999 
C       0.22461057       4.45454929       1.09364308 
H      -3.11590378       2.95643947       1.26182178 
H      -0.39658469       4.63282114      -1.05445855 
H      -3.32348119       3.68922664       1.41544271 
H       0.52233798       4.36995872       2.09645098 
