16
 energy: -17.890979835101 gnorm: 0.000752317867 xtb: 6.2.3 (830e466)
C        -0.18899553187116    0.94506981420330    0.17211009153128
C         0.01784202988624   -0.10315356968404   -0.97336005481740
C        -0.83152957556048    0.47867362431612    1.46713274997676
C        -0.43707571665527   -1.53236739922539   -0.73294531752789
C         1.31449841016401    1.06188709337187    0.17369151804683
C         1.48999248911599    0.17288179386849   -0.79699040676129
H        -0.69482749425137    1.84986369796419   -0.17836924542388
H        -0.37742034912857    0.24683372628101   -1.93185747526171
H         1.97548779937364    1.67200051695849    0.76328365726946
H         2.34967469447873   -0.22481628755252   -1.30649978510946
H        -0.30982913217990   -0.38487570158686    1.87048573221679
H        -1.87469426879241    0.21524625180057    1.30554159936156
H        -0.78905548861970    1.27717986019333    2.20515378002469
H         0.00863211270407   -1.93451315843843    0.17343772381337
H        -0.13302392339056   -2.15993724986860   -1.56823960270258
H        -1.51987605527320   -1.58008301260145   -0.64285496463644
16
Properties=species:S:1:pos:R:3 0.000700596309=T 6.2.3=T gnorm:=T pbc="F F F" energy:=T xtb:=T 830e466=T -17.894051096991=T
C      -0.17303973       1.16067565      -0.74509510 
C      -0.05727564      -0.15273735       0.09068374 
C      -0.70016257      -0.08170460       1.46872043 
C      -0.48515267      -1.41060596      -0.65262560 
C       1.32524806       1.22892971      -0.63741039 
C       1.43318343       0.11354395       0.07446307 
H      -0.56243290       1.02911140      -1.75358554 
H      -0.71290119       1.96890199      -0.25508554 
H       2.02694555       1.94843467      -1.01990506 
H       2.25469574      -0.43250804       0.50161910 
H      -0.41197807      -0.94653252       2.06358114 
H      -1.78510586      -0.06837901       1.38117989 
H      -0.38043681       0.81707544       1.99184238 
H      -0.19613502      -2.29700090      -0.09096720 
H      -0.01069481      -1.45406920      -1.63072080 
H      -1.56495749      -1.42324524      -0.78697453 
