16
 energy: -17.890980834080 gnorm: 0.000319191986 xtb: 6.2.3 (830e466)
C         0.31897124459120    0.91457576433888   -0.14580370332866
C         0.38629459348898   -0.54243258221240   -0.71666586480195
C        -0.96525647371726    1.36279425469562    0.53091020252589
C        -0.83791190414609   -1.43053932029893   -0.57465247971109
C         1.43918940724975    0.48091588233394    0.76571670741514
C         1.49390980232166   -0.75522284336846    0.28436773021949
H         0.62174565317598    1.66494860623978   -0.88236466998433
H         0.73120963919268   -0.56517622492314   -1.75486007026616
H         1.98276495537122    1.01895444125733    1.52174436926589
H         2.09929407349844   -1.61884677961946    0.49423944630837
H        -1.24605334932992    0.67554007753142    1.32460608637904
H        -1.77880701959765    1.41947681117166   -0.18879678047839
H        -0.82443726926569    2.34899580264055    0.96952904181993
H        -1.65804155432339   -1.05220580694167   -1.18105282216225
H        -1.16268629966614   -1.48292338846865    0.46114419356849
H        -0.60047549884372   -2.43906469437651   -0.90806138676940
16
Properties=species:S:1:pos:R:3 6.2.3=T gnorm:=T 0.000838651180=T pbc="F F F" -17.888435052462=T energy:=T xtb:=T 830e466=T
C       0.94583485       0.67027542      -1.05288710 
C       0.29985448      -0.65728961      -0.56167433 
C      -1.51804917       0.34846194       0.92071381 
C      -1.18186428      -0.63218015      -0.19703901 
C       1.85370729       0.53870057       0.13815096 
C       1.30009476      -0.59029833       0.56592283 
H       0.28508397       1.53443633      -1.04627287 
H       0.48296703      -1.48683849      -1.25087430 
H       2.66642898       1.15551865       0.47764256 
H       1.47723681      -1.24893908       1.39708528 
H      -0.97845819       0.09037631       1.82768373 
H      -2.58389922       0.32184196       1.13423000 
H      -1.25203412       1.36521833       0.64673301 
H       1.43844603       0.60836499      -2.02311285 
H      -1.75757292      -0.38094636      -1.09168035 
H      -1.47806631      -1.63691247       0.11537864 
