16
 energy: -17.892595259830 gnorm: 0.000516875862 xtb: 6.2.3 (830e466)
C        -0.13468989915027    0.75601289733032    0.14932677908763
C         0.03787724114809   -0.76408282122772   -0.16367255717686
C        -0.98194245297587    1.10706487073577    1.36045492552531
C        -0.35199745827898   -1.21725489170218   -1.56031105986452
C         1.36060474176123    0.76399266334722    0.35118173077675
C         1.50822793858976   -0.52684835722822    0.07852466443498
H        -0.46425971044430    1.33144831954792   -0.71900957062935
H        -0.43319798716467   -1.40588172705586    0.58461695801751
H         2.03051198830052    1.55643956105924    0.63272307452868
H         2.34917602114894   -1.19444573098117    0.02315968429020
H        -0.64474379714139    0.55011555773693    2.23229062639215
H        -2.02736747263632    0.86728331585977    1.17654126641236
H        -0.90479232927346    2.16999350388939    1.58067161396636
H         0.12698960819190   -0.58954508140654   -2.30901926503623
H        -1.43039631278018   -1.15746615278997   -1.69322355251266
H        -0.04020011929500   -2.24682592711487   -1.72467531821232
16
Properties=species:S:1:pos:R:3 6.2.3=T gnorm:=T pbc="F F F" energy:=T 0.000591523329=T -17.887818365546=T 830e466=T xtb:=T
C      -1.05798183       0.50670363      -0.05953268 
C      -0.13275023      -0.33664290      -0.51780945 
C      -1.08069308       1.18117730       1.27191785 
C      -0.28848892      -1.01048334      -1.85377327 
C       1.86668829       0.07631293       0.90246617 
C       1.07611870      -0.72980192       0.20797311 
H      -1.91223300       0.72184222      -0.69011139 
H       2.75227380      -0.28943965       1.39542342 
H       1.67850594       1.13267096       0.98274688 
H       1.34354954      -1.77611032       0.10629438 
H      -0.42972643       0.67619835       1.98124761 
H      -2.09657527       1.19138423       1.66419543 
H      -0.75417915       2.21791755       1.18166596 
H       0.58712137      -0.82609031      -2.47536807 
H      -1.16983848      -0.64740303      -2.37527615 
H      -0.38199125      -2.08823570      -1.72247979 
