16
 energy: -17.892594766648 gnorm: 0.000247040790 xtb: 6.2.3 (830e466)
C        -0.09407151441472    0.75229544880465    0.19242849726287
C        -0.00313588737926   -0.75624248794427   -0.19990741080197
C        -0.83565064255183    1.07462449835515    1.47874539996286
C        -0.51307834953704   -1.12916615364450   -1.58169645368919
C         1.41128075488276    0.69913173579210    0.28081275952653
C         1.48906963200728   -0.58184427694264   -0.05962165521182
H        -0.46501045462407    1.37934774104065   -0.62176489898402
H        -0.44153979363029   -1.41601659190903    0.55254759100072
H         2.13062828283603    1.45315353782602    0.54567236212636
H         2.29841214849003   -1.27405323654435   -0.20781030044530
H        -0.45579949238875    0.46627759358387    2.29703513564192
H        -1.89993581456915    0.87874065608783    1.36374289888777
H        -0.70351532687679    2.12281523912608    1.73930219485675
H        -0.25974169554503   -2.16187855744969   -1.81265749399426
H        -0.06348564694686   -0.48756799585240   -2.33681153848763
H        -1.59472619975233   -1.01961715032949   -1.63039708765158
16
Properties=species:S:1:pos:R:3 -17.898709405394=T 6.2.3=T gnorm:=T pbc="F F F" energy:=T xtb:=T 830e466=T 0.000390793472=T
C      -0.90889957       0.49983942      -0.24022012 
C      -0.39811405      -0.91783070      -0.62541054 
C       0.35572496       1.39664279       1.98564616 
C       0.29137095      -1.03369896      -1.97450032 
C       0.06879461       0.42045941       0.90742900 
C       0.50671580      -0.79259570       0.57605115 
H      -1.95938608       0.55305682       0.04351698 
H      -1.16306191      -1.69293130      -0.52817072 
H      -0.69678036       1.27182474      -0.97826800 
H       1.23939013      -1.46506141       0.98401184 
H       1.16061643       1.03705347       2.62286856 
H      -0.53364590       1.55671967       2.59629361 
H       0.64167477       2.35858221       1.55941971 
H       0.76579366      -2.00821295      -2.07213501 
H       1.05707351      -0.26713083      -2.07377186 
H      -0.42756694      -0.91671668      -2.78314046 
