21
 energy: -31.056029853994 gnorm: 0.000442635456 xtb: 6.2.3 (830e466)
C         2.33355762917331   -1.59084520280653    0.99272658447458
C        -3.31107410508866   -2.73643416855303    0.65749938905430
C        -3.29856238841259    0.37176886143224    0.20599181513209
C         1.16707214145710   -2.41603949747566    1.43764253618456
C        -2.98088277338008   -0.69136280911100   -0.79749641058826
C        -2.99414080767573   -2.00693542550379   -0.60506626474013
O        -0.03281232360995   -2.11199369717753    0.89332642194656
O        -0.02522142888449   -1.03890134620649   -0.02801457990769
O         1.18580807153856   -3.31763720710804    2.22519497152317
H        -0.97056274380250   -1.00640716468619   -0.30035437535465
H        -2.74206427097656   -2.65169073391423   -1.43865153836623
H        -2.74819058092687   -0.31302961127365   -1.78640165521274
H         2.13640052919542   -0.54169014793312    1.20335790432392
H         2.45730366470759   -1.69444184171582   -0.08354846453906
H         3.22725059296343   -1.92181671456441    1.51080904961652
H        -3.72491260604130   -2.08302634991808    1.41906394024106
H        -2.40790334038059   -3.20373271719315    1.05077172034882
H        -4.02859579827356   -3.52890588504555    0.45101223881771
H        -3.33198234029326   -0.01762022478250    1.21881022290505
H        -4.26527102618161    0.82023596367953   -0.02470789658985
H        -2.55181609510075    1.16351591985162    0.16104439073410
21
Properties=species:S:1:pos:R:3 6.2.3=T gnorm:=T pbc="F F F" -31.148045457084=T energy:=T 0.000500154215=T xtb:=T 830e466=T
C       1.69794089      -1.57092142       0.58186418 
C      -3.92491576      -3.11244838       0.71653936 
C      -2.72627718      -0.25828697       0.68965348 
C       0.31639798      -1.97920709       1.01819665 
C      -1.98379720      -1.54679302       0.49983747 
C      -2.49025314      -2.77146225       0.50160533 
O      -0.61000955      -1.33601108       0.27755543 
O       0.18824407       1.06856893      -1.19678530 
O       0.06130537      -2.75899560       1.89145612 
H      -0.11333824       0.24958865      -0.78510165 
H      -1.82892246      -3.61379734       0.35609867 
H      -0.00124992       0.99476372      -2.13362716 
H       1.75196426      -0.49280777       0.45263569 
H       1.91958420      -2.04164206      -0.37450429 
H       2.42147119      -1.90249250       1.32003087 
H      -4.54434219      -2.22633182       0.81012145 
H      -4.02400843      -3.70542819       1.62531366 
H      -4.28982111      -3.71801238      -0.11276072 
H      -2.98842457      -0.12504182       1.73859718 
H      -3.63920437      -0.24634119       0.09994522 
H      -2.09894384       0.57610959       0.38633835 
