12
 energy: -12.609957518742 gnorm: 0.000484261687 xtb: 6.2.3 (830e466)
C        -3.28781728231752    0.16217668926624    0.07319938133893
C        -3.29012657881265   -2.90011364401031    0.82843757847881
C        -2.89413231340038   -2.27846276442935   -0.47082616622289
C        -2.89315731951788   -0.99286088628025   -0.78788794692084
H        -2.57558030729447   -0.70880397793138   -1.78413768998498
H        -2.57714249782111   -2.99360978161969   -1.22058845408722
H        -2.45010471586131    0.85259377526851    0.17115114989740
H        -4.10922305296736    0.70657060128939   -0.39269860526887
H        -3.59788277360955   -0.14889527897034    1.06574129080588
H        -4.11061337783776   -3.59960977327045    0.66836209611190
H        -2.45248146695122   -3.46471479439561    1.23786212138710
H        -3.60201831360880   -2.16298016491675    1.56151524446479
12
Properties=species:S:1:pos:R:3 0.000978665987=T 6.2.3=T gnorm:=T pbc="F F F" -12.609444547154=T energy:=T xtb:=T 830e466=T
C      -3.32681832      -0.08265012       0.35407345 
C      -3.37664885      -2.60197570       0.88690952 
C      -3.09214074      -1.49863795      -0.09436104 
C      -2.64678902      -1.76515468      -1.31282514 
H      -2.43402397      -0.98377573      -2.02199502 
H      -2.46955789      -2.77415860      -1.64335130 
H      -3.69283816      -0.04295243       1.37619285 
H      -4.05655633       0.40454065      -0.29096629 
H      -2.40364932       0.49220652       0.29777416 
H      -3.73868910      -2.21087836       1.83360884 
H      -2.47553648      -3.18283936       1.07793920 
H      -4.12703182      -3.28243422       0.48713077 
