21
 energy: -31.056079284439 gnorm: 0.000724876153 xtb: 6.2.3 (830e466)
C         2.21542545505484   -1.35442957922090    1.37889972688129
C        -3.14176161318445   -2.90629330349267    0.35440163619960
C        -3.47128750871883    0.23069727074674    0.35944404790759
C         1.30376160464154   -2.50457389071751    1.08359738597360
C        -3.00750146336403   -0.63756558728685   -0.76714089725671
C        -2.87856742963859   -1.96074845174168   -0.76921165702696
O         0.12259580982612   -2.20661830051057    0.49644845615221
O        -0.09815677284281   -0.83384938070751    0.23999859473527
O         1.51092092042602   -3.66062163482995    1.31588019071300
H        -1.01680974546523   -0.84534412455818   -0.11209477101277
H        -2.54077761388839   -2.44309058272028   -1.67860702324181
H        -2.78824580116697   -0.09447523312074   -1.67942508539655
H         2.44910314150544   -0.83212664762006    0.45325610604598
H         3.12214809110710   -1.72444251275846    1.84574962914794
H         1.70786570283178   -0.65130464289100    2.03654189719276
H        -3.50078849028715   -2.40337420898029    1.24692053424249
H        -2.22775216231908   -3.44766562259243    0.59784001479784
H        -3.88531836828275   -3.64057624896219    0.04699202198991
H        -3.58210001030610   -0.32192368947086    1.28728446250134
H        -4.43341893960877    0.67558288388558    0.10618126400405
H        -2.76605480632052    1.04576348754873    0.52003346544991
21
Properties=species:S:1:pos:R:3 6.2.3=T gnorm:=T pbc="F F F" 0.000556969677=T energy:=T xtb:=T -31.139454031808=T 830e466=T
C       0.76411559      -1.31863352       1.53871797 
C      -1.88770833      -3.84265693       1.26989675 
C      -2.64609399       0.81729134       0.24560088 
C      -0.02412929      -2.45072815       0.94444210 
C      -2.80575144      -0.44178828      -0.54264164 
C      -1.83776998      -1.01130876      -1.24724696 
O      -1.01514634      -2.83025033       1.75222369 
O      -0.58094447      -0.48379354      -1.34990641 
O       0.19012775      -2.95118067      -0.13196037 
H       0.03462638      -1.18896578      -1.58359059 
H      -2.00861164      -1.93239809      -1.79316600 
H      -3.78199002      -0.90238086      -0.53740009 
H       0.50344862      -0.41076670       0.99633307 
H       1.82724754      -1.50013687       1.40634967 
H       0.52010116      -1.19904138       2.58877436 
H      -2.44638014      -4.20274879       2.13004209 
H      -1.31437886      -4.65237235       0.81438211 
H      -2.56579227      -3.42039661       0.52529602 
H      -2.82593112       0.62730995       1.30405880 
H      -3.36352512       1.56692764      -0.08560801 
H      -1.64223401       1.21103868       0.11839255 
