21
 energy: -31.056086760913 gnorm: 0.000353134993 xtb: 6.2.3 (830e466)
C         2.25477746758461   -1.80663832362311    1.32869372709980
C        -3.38661951709913   -2.56001289548843    0.57105682474196
C        -3.19663287805832    0.51832027488215   -0.08488307131700
C         1.04538470159443   -2.65970981873913    1.55101745228207
C        -2.82351533958402   -0.62843833260960   -0.96985049175772
C        -2.91226072598347   -1.92581778364528   -0.69323434715451
O        -0.10173644973543   -2.25150735779079    0.96302044541188
O        -0.00673871989121   -1.05695613550336    0.21173301362555
O         0.98760636652404   -3.66635574700442    2.19674899188801
H        -0.91427635009014   -0.98770452968425   -0.16208909710780
H        -2.60759679288180   -2.63518150010598   -1.45360961907884
H        -2.47140135969738   -0.33072738989830   -1.95110695213417
H         2.06053900943389   -0.80196421531305    1.69913925736456
H         2.45359705350979   -1.73284151133714    0.26130045971239
H         3.10347066948178   -2.24371357727493    1.84405117062915
H        -4.18592842852239   -3.26546924144080    0.34830242638036
H        -2.57144045821557   -3.12087464227706    1.02776321345761
H        -3.75537058268826   -1.83351207276385    1.28806331467580
H        -2.37313754323833    1.22976773351267   -0.02525978995558
H        -3.45280957691884    0.19755889624519    0.92003687644710
H        -4.05239054552145    1.04467816986098   -0.50799380521114
21
Properties=species:S:1:pos:R:3 -31.051620721125=T 6.2.3=T gnorm:=T pbc="F F F" 0.000767006036=T energy:=T xtb:=T 830e466=T
C       1.65624898      -1.84044603       0.96143728 
C      -2.48696906      -2.91893083       1.53809178 
C      -2.97817141       0.49560641      -0.16661038 
C       0.50360707      -2.46456435       1.70417349 
C      -2.75228132      -0.28534712      -1.41756703 
C      -1.67812132      -1.01296108      -1.66006914 
O      -0.54335207      -1.61777914       1.63384279 
O      -1.71711845      -2.03419482       2.31798091 
O       0.49402827      -3.53177522       2.23959333 
H      -0.87648953      -1.08643535      -0.94241734 
H      -1.55172653      -1.56202878      -2.57790149 
H      -3.54450450      -0.22349365      -2.15372011 
H       1.46466399      -0.78802727       0.77818653 
H       1.78290298      -2.36097251       0.01406608 
H       2.56354782      -1.96837769       1.54505322 
H      -3.37269327      -3.08302619       2.14864103 
H      -1.96936154      -3.86854554       1.37629476 
H      -2.76614306      -2.46905990       0.58103575 
H      -2.17474947       0.33302331       0.54735346 
H      -3.92480278       0.21060722       0.29256145 
H      -3.03499479       1.55962852      -0.39712635 
