21
 energy: -31.060475176811 gnorm: 0.000493391269 xtb: 6.2.3 (830e466)
C         0.94445066821717   -1.99425666928093    1.11846232503012
C        -2.81079432930540   -3.08638074367443    1.42225936293886
C        -2.99641878608844   -0.13752328524290    0.38169676633890
C         0.72934030722075   -1.13326282151070   -0.08301035134268
C        -2.54250123961000   -1.33807312336926   -0.38075698489096
C        -2.45848723108173   -2.58588024376388    0.05602148664948
O         0.44398881450992    0.11941105422585    0.29454990655961
O         0.19611726080871    0.97671476458320   -0.78929286614348
O         0.78759040320565   -1.45284078827257   -1.24212792507847
H         0.31487216405564    0.38052037480186   -1.56662052550667
H        -2.12568427504361   -3.35272384549505   -0.63233268890419
H        -2.26686409139669   -1.13473017162460   -1.40838393598586
H         1.04641219105864   -1.37765238385116    2.00553895416375
H         0.08093090242797   -2.64740661694291    1.22481856076133
H         1.82706921020795   -2.61039758849423    0.96972763379059
H        -2.77655877564863   -2.29710552942140    2.16823891623680
H        -2.13262319314518   -3.88358333194017    1.72383317585021
H        -3.81907976035795   -3.50210500157913    1.41420640536784
H        -3.20748738562215   -0.36548225349673    1.42181271890235
H        -3.90206406198907    0.26213518861003   -0.07430855317755
H        -2.23891879242385    0.64371301573916    0.33856761843979
21
Properties=species:S:1:pos:R:3 6.2.3=T gnorm:=T -31.060509496202=T pbc="F F F" 0.000536026338=T energy:=T xtb:=T 830e466=T
C      -0.08229187      -2.63026982       1.87338778 
C      -1.46926352      -3.16025497       2.20509265 
C      -3.08424845       0.03697325       0.13691853 
C      -0.44632492      -0.97990291      -1.14568352 
C      -2.91644951      -1.13006318      -0.76392497 
C      -1.77620302      -1.55689286      -1.31339820 
O      -0.42305911       0.12499819      -0.37645486 
O       0.87266714       0.64479299      -0.23354188 
O       0.57248219      -1.41636227      -1.63800734 
H       1.41234544       0.01218608      -0.77112607 
H      -1.76640090      -2.42545306      -1.95599216 
H      -3.81489014      -1.68771430      -0.99625659 
H      -0.07326188      -1.54259000       1.88531931 
H       0.23147052      -2.96861513       0.88806103 
H       0.64536712      -2.98213320       2.60108934 
H      -1.78911626      -2.80837938       3.18351636 
H      -1.46869265      -4.24785624       2.21712430 
H      -2.19539909      -2.82811855       1.46552850 
H      -2.43780592      -0.05734175       1.00796805 
H      -4.11536908       0.13403909       0.46395998 
H      -2.78226607       0.95204803      -0.37068024 
