21
 energy: -31.053021566566 gnorm: 0.000747241484 xtb: 6.2.3 (830e466)
C         0.87754349183577   -1.46790797117801    0.30743583983151
C        -2.75504761283269   -2.72649326200082    0.72109583306064
C        -2.56986019149660    0.13152498394562   -0.55714836955833
C         0.68582089574427   -2.25988920608758    1.55795548447364
C        -2.43353871853908   -1.18484778917373   -1.25615461855994
C        -2.51262121901516   -2.39152404335353   -0.71355207362796
O         0.04928635199294   -1.64102608695799    2.58610351636521
O        -0.36919602512078   -0.31188807547308    2.33262902903436
O         1.03026015845247   -3.38802087678605    1.75752654602578
H        -0.67844666579095   -0.03158764816681    3.20628988032689
H        -2.39641972682221   -3.25609447395675   -1.35530693938758
H        -2.27089083927784   -1.10940647714044   -2.32425999281077
H        -0.09444730623605   -1.30164779972386   -0.15681694834251
H         1.51823080476252   -2.02034165282797   -0.37110262804749
H         1.30971655088134   -0.49802622673759    0.54178652770690
H        -3.69189161973139   -3.27552107183484    0.81466506759531
H        -2.81434410115704   -1.84083638676455    1.34607564268245
H        -1.96031926459687   -3.37285928004958    1.09388936673408
H        -2.37394623827109    0.05300203180884    0.50832854780395
H        -3.57941867700944    0.52103916223685   -0.69332061676715
H        -1.87717004777203    0.85535215022255   -0.98313909453978
21
Properties=species:S:1:pos:R:3 -31.030671012834=T gnorm:=T 0.000955328342=T pbc="F F F" energy:=T xtb:=T 6.2.3=T 830e466=T
C       0.58865707      -1.37244434      -0.08527428 
C      -2.15657703      -2.75023204       2.74240003 
C      -2.00173499       0.20612624      -0.91044496 
C      -0.37780250      -2.46602183      -0.45494987 
C      -2.06335827      -1.05407600      -1.70276858 
C      -1.38125777      -2.17926129      -1.49812888 
O      -2.42981316      -1.39373774       2.47452134 
O      -1.25294331      -0.61039166       2.55772155 
O      -0.32084379      -3.56346084       0.06279698 
H      -1.26871804      -0.23325431       3.45065929 
H      -1.60688437      -3.04445324      -2.10962243 
H      -2.77436881      -1.04246576      -2.52078790 
H       0.73395125      -0.67048603      -0.89899013 
H       1.53729926      -1.81619492       0.20794154 
H       0.19026899      -0.84228442       0.77868684 
H      -3.12396356      -3.23396475       2.62466571 
H      -1.79183524      -2.89048370       3.76539745 
H      -1.44353792      -3.17190763       2.03101707 
H      -1.77224228       0.01445884       0.13268198 
H      -2.95438279       0.72748073      -0.96970468 
H      -1.23661275       0.87005470      -1.31483807 
