9
 energy: -18.438051438541 gnorm: 0.000167786893 xtb: 6.2.3 (830e466)
C         2.15057934918855   -1.90750146170589    1.06445728263766
C         0.67458820619809   -2.13630341809726    0.98125649176136
O        -0.07888898998344   -1.08407362535384    0.57218303238413
O         0.64536599495688    0.09767114785605    0.28166241812394
O         0.08730098033800   -3.14585278577337    1.23573991895332
H        -0.06262640370455    0.71064350357630    0.03493410578176
H         2.63663448443897   -2.81681155785546    1.40183407677553
H         2.52790376451608   -1.61566356928590    0.08620784875870
H         2.35269261405143   -1.09044823336064    1.75444482482361
9
Properties=species:S:1:pos:R:3 6.2.3=T gnorm:=T pbc="F F F" energy:=T -18.438676858350=T 0.000202716051=T 830e466=T xtb:=T
C       2.19356320      -1.80763310       1.12559633 
C       0.80585794      -1.37280261       0.74375998 
O      -0.23555363      -1.64575179       1.59595079 
O       0.80276353      -0.19192723       0.09683492 
O      -0.10500935      -2.32457593       0.35664053 
H      -0.09908855       0.06797812      -0.14163017 
H       2.77758337      -1.94564289       0.22029308 
H       2.14445803      -2.73779744       1.68332024 
H       2.64897547      -1.03018713       1.73195431 
