21
 energy: -31.055972977483 gnorm: 0.000670728678 xtb: 6.2.3 (830e466)
C         2.31105379693331   -1.61507263240249    0.98651979087291
C        -3.23438651127443   -2.68525366855643    0.79656590372823
C        -3.38196552999195    0.44000067510337    0.38888076878267
C         1.37256529785322   -2.71442135090216    0.59679502947539
C        -3.07412102714450   -0.60259122094643   -0.63893167348200
C        -3.02107333154682   -1.91968984407883   -0.46685826919995
O         0.11628275453252   -2.34647603896120    0.25664619818693
O        -0.14225874349399   -0.95703464153102    0.31618199792437
O         1.61982862567075   -3.88510812248467    0.55552747877069
H        -1.08582647676746   -0.92210553073974    0.04110524148621
H        -2.79844910711984   -2.54267563283979   -1.32439081005545
H        -2.90679900077273   -0.20449097239526   -1.63281473884069
H         2.39992893358157   -0.90673391752075    0.16502096698880
H         3.27969787610697   -2.03832609824933    1.23032050428208
H         1.90327365544725   -1.07972137580186    1.84209988550283
H        -2.36564706187021   -3.31234932997834    0.99537556269623
H        -3.40776167660046   -2.03954959096747    1.65244088870946
H        -4.09375514481790   -3.34535683999723    0.68182227989341
H        -3.43952489946329    0.02898957566619    1.39194522524929
H        -4.33699384401020    0.91086792946236    0.15579963891781
H        -2.62087858524969    1.21980862813129    0.37292813010390
21
Properties=species:S:1:pos:R:3 6.2.3=T gnorm:=T 0.000873550149=T pbc="F F F" energy:=T xtb:=T 830e466=T -31.055008418112=T
C       1.66964321      -2.65562297       1.04979157 
C      -1.99242822      -2.48173948       0.74952793 
C      -3.82494835       0.02080507       0.25902606 
C       0.32059984      -1.95313687       0.98667306 
C      -3.11051248      -0.79146137      -0.77332325 
C      -2.34870240      -1.85919731      -0.56931280 
O       0.37801837      -1.01340878      -0.06751600 
O      -0.27609715       0.19427242       0.26029903 
O      -0.65058243      -2.93836600       0.78290508 
H      -1.11482950       0.15857531      -0.23549955 
H      -1.89939977      -2.36702191      -1.41188472 
H      -3.28601337      -0.47304837      -1.79380861 
H       2.44768639      -1.93374474       1.27551526 
H       1.86790894      -3.11366568       0.08579084 
H       1.63683875      -3.42488353       1.81421123 
H       0.11355945      -1.39689714       1.91989666 
H      -2.17543333      -1.79855535       1.59058957 
H      -2.59462666      -3.38536810       0.89669409 
H      -3.43381634      -0.14457597       1.25898933 
H      -4.88311513      -0.24145241       0.26209710 
H      -3.75055984       1.08120317       0.02231813 
