21
 energy: -31.062992643503 gnorm: 0.000433380718 xtb: 6.2.3 (830e466)
C         0.32753759557250   -1.97932673412221    1.73146185743846
C        -2.97382538178983   -3.77674875763927    0.10193671466408
C        -2.47119119825191    0.06780007495575   -0.26261275408306
C         0.73155774832468   -0.93050403922201    0.74879589884051
C        -2.95243266391964   -1.28008571902205    0.16049792275835
C        -2.48665505436034   -2.42599346041353   -0.30972696720344
O         0.74962442907123    0.27194210363788    1.33838328070391
O         1.08384710606205    1.31248009843725    0.45726190333309
O         1.00013833068507   -1.07353374118507   -0.41681118765782
H         1.23328922393668    0.83587689500929   -0.39383912569520
H        -1.69923718679402   -2.42208533608465   -1.05334892487322
H        -3.74241696051211   -1.28121496452998    0.90213187391749
H        -0.71831482055821   -2.22496389527654    1.54427288388176
H         0.92563423117234   -2.87295050223779    1.57686667248149
H         0.43801724106995   -1.60657110826302    2.74459745583359
H        -3.72994859840681   -3.69995112421972    0.88025079976257
H        -2.14809825734673   -4.38686467419453    0.46891199041107
H        -3.40576767359144   -4.29484556476181   -0.75423996518306
H        -2.08928388152941    0.62382011899469    0.59389191883622
H        -3.29298705665618    0.64536470165846   -0.68521235684232
H        -1.68627717217689   -0.01854437152311   -1.01035989132505
21
Properties=species:S:1:pos:R:3 6.2.3=T gnorm:=T -31.056025349235=T pbc="F F F" energy:=T xtb:=T 830e466=T 0.000396743678=T
C      -0.11206778      -3.06940152       1.96975641 
C      -1.53707023      -3.57311548       1.72992577 
C      -2.99237030       0.44890035      -0.07185748 
C       0.21881529      -2.02128929       0.94446146 
C      -2.49263290      -0.67939417      -0.90975285 
C      -1.61146994      -0.55527627      -1.88472853 
O       0.11533953      -0.80384435       1.48682226 
O       0.37270316       0.23834246       0.58161812 
O       0.50687088      -2.19393151      -0.21094357 
H       0.44091024      -0.23004093      -0.28355713 
H      -1.26922613      -1.39922184      -2.45863915 
H      -2.89944767      -1.65411332      -0.66828200 
H      -1.19550794       0.40479754      -2.14755298 
H       0.59465503      -3.89202926       1.85667700 
H      -0.02181800      -2.63598418       2.96509034 
H      -2.25309597      -2.76740626       1.87102133 
H      -1.76920904      -4.37108960       2.42976959 
H      -1.63335704      -3.95588004       0.71701562 
H      -2.72184269       0.29191556       0.97238473 
H      -4.07915633       0.50713616      -0.12606362 
H      -2.56781216       1.39402596      -0.40005535 
