21
 energy: -31.055251167185 gnorm: 0.000601708184 xtb: 6.2.3 (830e466)
C         2.29616883848781   -1.73078871448851    1.25721987405765
C        -3.59141719083350   -2.44362536617011    1.22668689346056
C        -3.26265476269158    0.37337287191836   -0.15663707681058
C         1.74354719141657   -2.10342488681417   -0.08381970323729
C        -2.95560815262352   -0.96950597233870   -0.73593754111113
C        -3.09400062725537   -2.15574256324394   -0.15324348803948
O         0.41950360900288   -1.90137910626663   -0.26976003171589
O        -0.26693080621760   -1.35417025700518    0.83933851243512
O         2.35387394324766   -2.56311469265592   -1.00521993384900
H        -1.19339771417540   -1.34910942564629    0.51160877897466
H        -2.83421007565637   -3.04039038505388   -0.72153913557376
H        -2.59116957344514   -0.93743883563928   -1.75538187945962
H         2.10702252386689   -0.67612180688181    1.44629802912061
H         3.36100517095322   -1.93555893610143    1.27693756189807
H         1.78477783480009   -2.30200072457043    2.02926700000408
H        -3.83180192086100   -1.54082716571805    1.78032606699595
H        -2.84243244947862   -3.00656216741612    1.78358243293240
H        -4.48692455561031   -3.06184308867680    1.16912933430130
H        -3.55551946812409    0.32074154672022    0.88764346063903
H        -4.07298583692463    0.83605715571035   -0.71932319904170
H        -2.39344597786410    1.02442252033304   -0.24410595599673
21
Properties=species:S:1:pos:R:3 6.2.3=T gnorm:=T pbc="F F F" 0.000855230041=T -31.135914137774=T energy:=T xtb:=T 830e466=T
C       1.37623594      -1.69472806       1.04005533 
C      -2.40758435      -2.68766448       2.22653440 
C      -2.86013961       0.42635382      -0.59078686 
C       0.50556046      -2.14302643      -0.09700727 
C      -2.54459557      -0.79480031      -1.38774895 
C      -1.48044873      -1.56431796      -1.22074121 
O      -0.54010030      -1.29553675      -0.24205875 
O      -1.69328252      -1.49919347       2.45694113 
O       0.67529443      -3.11137514      -0.78422064 
H      -1.50326684      -1.08763692       1.60293735 
H      -1.27141227      -2.44465787      -1.81254712 
H      -3.24706931      -1.06646656      -2.16054674 
H       1.65268559      -0.65201669       0.90437601 
H       2.26381748      -2.31773901       1.08848991 
H       0.81535973      -1.77580706       1.97079495 
H      -2.60792521      -3.12832689       3.20115245 
H      -1.82808938      -3.40032030       1.62847067 
H      -3.35969915      -2.49577878       1.72018442 
H      -3.75544262       0.26305518       0.00928683 
H      -3.06002736       1.26357942      -1.25772475 
H      -2.03647040       0.68939430       0.06722883 
