9
 energy: -18.438051438541 gnorm: 0.000167786893 xtb: 6.2.3 (830e466)
C         2.15057934918855   -1.90750146170589    1.06445728263766
C         0.67458820619809   -2.13630341809726    0.98125649176136
O        -0.07888898998344   -1.08407362535384    0.57218303238413
O         0.64536599495688    0.09767114785605    0.28166241812394
O         0.08730098033800   -3.14585278577337    1.23573991895332
H        -0.06262640370455    0.71064350357630    0.03493410578176
H         2.63663448443897   -2.81681155785546    1.40183407677553
H         2.52790376451608   -1.61566356928590    0.08620784875870
H         2.35269261405143   -1.09044823336064    1.75444482482361
9
Properties=species:S:1:pos:R:3 6.2.3=T gnorm:=T -18.526307776345=T pbc="F F F" energy:=T xtb:=T 830e466=T 0.000518010301=T
C       2.32101756      -1.59725328       1.01909317 
C      -0.07727366      -1.77550137       0.73760703 
O       1.10722789      -2.32850698       1.05387883 
O      -0.08392100      -0.48708482       0.37944598 
O      -1.07115280      -2.42415157       0.78012549 
H       0.78489197      -0.06402783       0.38172017 
H       2.31363626      -0.76373124       1.72959958 
H       2.55126895      -1.24004401       0.00963960 
H       3.08785483      -2.30803891       1.32161015 
