12
 energy: -12.609957518742 gnorm: 0.000484261687 xtb: 6.2.3 (830e466)
C        -3.28781728231752    0.16217668926624    0.07319938133893
C        -3.29012657881265   -2.90011364401031    0.82843757847881
C        -2.89413231340038   -2.27846276442935   -0.47082616622289
C        -2.89315731951788   -0.99286088628025   -0.78788794692084
H        -2.57558030729447   -0.70880397793138   -1.78413768998498
H        -2.57714249782111   -2.99360978161969   -1.22058845408722
H        -2.45010471586131    0.85259377526851    0.17115114989740
H        -4.10922305296736    0.70657060128939   -0.39269860526887
H        -3.59788277360955   -0.14889527897034    1.06574129080588
H        -4.11061337783776   -3.59960977327045    0.66836209611190
H        -2.45248146695122   -3.46471479439561    1.23786212138710
H        -3.60201831360880   -2.16298016491675    1.56151524446479
12
Properties=species:S:1:pos:R:3 0.000997221186=T 6.2.3=T gnorm:=T pbc="F F F" -12.527128619499=T energy:=T xtb:=T 830e466=T
C      -2.96186314       0.47638495       0.85602184 
C      -3.38126556      -3.11228887       0.36364813 
C      -2.37273818      -2.00184116       0.37902205 
C      -2.65695471      -0.75905404       0.61730812 
H      -3.80060384      -0.86775548      -1.89849412 
H      -1.34914450      -2.29005855       0.17159669 
H      -4.24921259      -0.82316672      -2.53562986 
H      -3.23202231       1.16032077       0.06625791 
H      -2.94850120       0.88118748       1.85600945 
H      -4.37879343      -2.73132625       0.56777114 
H      -3.12623779      -3.85815712       1.11626735 
H      -3.38294274      -3.60295503      -0.60964870 
