17
 energy: -33.113014354017 gnorm: 0.000292410865 xtb: 6.2.3 (830e466)
C        -0.21399477510073   -0.09092419438669    2.91865010340531
C         0.90669867062772    2.27194308484370    0.03360994115153
S         1.78748049050532   -2.70428527870887    0.76662743836351
C         0.33114346206957    1.07004005196203    2.14212040503286
C         0.34980999447294    1.13530497187298    0.82165823060604
O         0.78308933234478   -0.73846400504281    3.68939775008241
Cl        1.63392839858507   -3.53656703136026    2.65743511636753
Cl        2.96757413749310   -1.06081150363935    1.24455598431718
O         0.49602366623613   -2.19778412118448    0.42687687906739
H         1.20811324038838   -0.08211492763129    4.25308060416411
H        -1.02838601432897    0.25011485281300    3.57828445157999
H        -0.60668073326118   -0.85189310313593    2.24175174444138
H         0.75224145071280    1.87212974265532    2.73872515831592
H        -0.06055092259325    0.31877236598885    0.24196606438426
H         0.13569854424761    2.69782348454851   -0.60743474798171
H         1.71159933093199    1.91854258027270   -0.61044694456218
H         1.29421172666970    3.05167303013092    0.68512182126404
17
Properties=species:S:1:pos:R:3 6.2.3=T gnorm:=T pbc="F F F" energy:=T 0.000664097998=T xtb:=T 830e466=T -33.089955524035=T
C      -0.14398875      -1.92039375       3.42391312 
C       0.98245759       2.62285225      -0.71223965 
S       0.99181050      -1.86686417       1.91555730 
C       1.47002952       1.96354360       1.61505934 
C       0.97616151       1.66583799       0.42868823 
O       0.57455787      -1.86066917       4.60277411 
Cl       1.16747162      -3.94242056       1.69077646 
Cl       1.45844554       0.83897445       2.92179388 
O       0.12560208      -1.40488446       0.84863804 
H       0.97498464      -0.98811143       4.70074475 
H      -0.83655699      -1.08349245       3.28490073 
H      -0.68620057      -2.86475310       3.40753024 
H       1.91743117       2.90762552       1.88350791 
H       0.54313607       0.69264595       0.24210548 
H      -0.03702646       2.79472342      -1.05302589 
H       1.53895181       2.19565282      -1.54474051 
H       1.43073285       3.57323308      -0.43400352 
