17
 energy: -33.114911168723 gnorm: 0.000507270714 xtb: 6.2.3 (830e466)
C         1.47422244352489   -0.81673588536219    3.01258606263992
C         1.33949463928013    1.25084475781911   -0.29145548671908
S        -1.41360624259226    0.52010176691887    1.96042671390734
C         1.35689179059743    0.29681347050900    2.01002677812376
C         1.42411127136783    0.14077474850808    0.69344591940699
O         2.37273166099580   -0.50002846566086    4.05371003283247
Cl       -1.52316411735920   -1.44342341887616    1.26420568620855
Cl       -3.27117705528286    0.53792722800190    2.93307087467374
O        -1.57067373093602    1.35841462796250    0.81900227499693
H         3.23417607886682   -0.30065648768379    3.67051196221745
H         0.51533131816649   -0.98698878581299    3.51488903497018
H         1.76896243611462   -1.74992888297426    2.51183878955756
H         1.29995666702531    1.28796047022197    2.44214679744199
H         1.51625441262242   -0.85450307925165    0.27673988848470
H         0.38548129472055    1.20197384436931   -0.81569031840079
H         2.13124903437593    1.16349093412095   -1.03327666641681
H         1.40806809850979    2.21737315718674    0.19971165607030
17
Properties=species:S:1:pos:R:3 -33.080367515795=T 6.2.3=T gnorm:=T pbc="F F F" energy:=T xtb:=T 0.000737163195=T 830e466=T
C       1.48563489      -1.10413846       2.97179915 
C       1.22278809       1.33287822      -0.07765767 
S      -2.22536291       1.40034635       1.87964016 
C       1.52272790       0.07663274       2.04757201 
C       1.16532764       0.11492420       0.77481654 
O       2.67324011      -1.30710844       3.63588738 
Cl       1.01047076      -2.61785830       2.08435052 
Cl      -1.95029656      -0.63185734       2.29554949 
O      -1.99292722       1.60350498       0.47095556 
H       3.39795385      -1.37792898       3.00013547 
H      -0.96359837       1.72325442       2.47125369 
H       0.72074542      -0.97973255       3.74735617 
H       1.91045426       0.96020998       2.54186684 
H       0.78599928      -0.77518831       0.29295226 
H       0.21478098       1.60450441      -0.38999554 
H       1.80098328       1.13064040      -0.97777698 
H       1.66938860       2.17032666       0.45318496 
