17
 energy: -33.112573294620 gnorm: 0.000890679755 xtb: 6.2.3 (830e466)
C         1.16969400440136   -0.24753464779301    3.49629608186381
C         1.60363565273361    1.10345624324949   -0.13769356923115
S        -2.35343439299921   -0.21220790099968    0.51971233813520
C         1.00951582163781    0.50257965324313    2.20490165344790
C         1.77674745152078    0.35100249862529    1.13839790118738
O         2.34089717448160   -1.02040448078771    3.58848981582447
Cl       -0.84734062078575   -1.61175497230542    0.22264921353357
Cl       -2.50363040902172   -0.39412771811749    2.59326277746320
O        -1.78186504805920    1.07079162346284    0.27041540631882
H         3.09583100122464   -0.44424682678739    3.42568264188200
H         1.11399089226468    0.46881846658162    4.33350724314773
H         0.34250660948975   -0.95643595830393    3.61754732336398
H         0.18811784806032    1.20599834017764    2.19437023693930
H         2.58930288092911   -0.36545024952871    1.15464079511929
H         0.70295285873547    1.71138350103465   -0.11048601198460
H         1.53776810114783    0.41123519134050   -0.97665051583633
H         2.46371017421246    1.75040723688958   -0.31305333119019
17
Properties=species:S:1:pos:R:3 6.2.3=T gnorm:=T -33.077752223655=T 0.000923730615=T energy:=T xtb:=T 830e466=T pbc="F F F"
C       1.18323297      -0.33396700       3.05881242 
C       1.71222827       0.95778490       0.31043451 
S      -2.30810548       1.44163768       1.43083750 
C       1.15102687      -1.03852987       1.72762581 
C       1.40291419      -0.48239876       0.54960836 
O       2.48388612      -0.21010683       3.58472850 
Cl       0.79257366      -2.73828165       1.81514025 
Cl      -2.09197080      -0.62459690       1.67826134 
O      -1.38203358       1.86340544       0.40674366 
H       3.06177910       0.15876047       2.90675871 
H       0.71793112       0.65886617       2.95074396 
H       0.61935519      -0.90214793       3.80142488 
H      -1.59120062       1.69323842       2.64525674 
H       1.35295780      -1.09678052      -0.33843892 
H       0.83414586       1.44355994      -0.11739567 
H       2.52488840       1.04645774      -0.40761693 
H       1.98479096       1.48660870       1.21906488 
