13
 energy: -16.669036738276 gnorm: 0.000552439830 xtb: 6.2.3 (830e466)
C         1.84338364383541    0.14325478612697    3.58698318521326
C         1.39767678228170    1.36633751886817   -0.09296188875623
C         1.72863598964088    0.98672443523483    2.34936059271352
C         1.50194886443743    0.52224930376300    1.13227139032516
O         1.85872927507198   -1.24374332203854    3.35833113674871
H         2.57507089318738   -1.44250203916309    2.74563329376676
H         2.74420558572431    0.45059916994492    4.14468335229429
H         0.97866118837429    0.32423898784500    4.23472839483256
H         1.84747618280592    2.04782893362406    2.52400192241849
H         1.36767475363897   -0.54078276570274    0.97694438252414
H         0.42302775208743    1.22913828828959   -0.56025431142705
H         2.15501264297557    1.07227798539865   -0.81977646298581
H         1.52898644593872    2.41902871780918    0.14506501233219
13
Properties=species:S:1:pos:R:3 0.000305313073=T 6.2.3=T gnorm:=T -16.683514728840=T pbc="F F F" energy:=T xtb:=T 830e466=T
C       1.52060196       0.27337407       3.40442721 
C       1.18609727       1.13712228       0.31837623 
C       2.63369352       0.53938820       2.38913570 
C       1.59724633       0.09782187       1.34491162 
O       0.61258950      -0.10755568       2.37071345 
H       3.50913523      -0.09756294       2.47940143 
H       1.70456531      -0.54996996       4.10042974 
H       1.16153688       1.14472207       3.95925322 
H       2.93987661       1.57900297       2.30616523 
H       1.83401991      -0.85161389       0.84825622 
H       0.31666790       0.78815487      -0.23228276 
H       2.00404752       1.31069313      -0.37668415 
H       0.93041204       2.07107302       0.81290687 
