17
 energy: -33.109907049382 gnorm: 0.000160319858 xtb: 6.2.3 (830e466)
C         1.63442110285444   -0.27988896467745    3.35648146294721
C         1.42318140927501    1.49937984630719   -0.10402922971744
S        -2.34150294622118   -0.35207983357409    0.82642532406102
C         1.63570622301101    0.74664916324278    2.26307246438179
C         1.44548208790012    0.48106118251037    0.98276254391455
O         1.20176059103651   -1.53224511688434    2.87138010570871
Cl       -1.30031611226480   -2.14166327263355    0.97135045333552
Cl       -1.72935829664556    0.50361446411101    2.61793631095143
O        -1.72310728753906    0.40397238214794   -0.21430301768644
H         1.25004838055222   -2.17444826551262    3.58620102228681
H         2.65283275984227   -0.35959306202210    3.77287134730105
H         0.97308003484219    0.06434324011187    4.16927501566303
H         1.80987457272453    1.75771911514960    2.60755767169150
H         1.27823781380251   -0.54188993025270    0.67694824616025
H         0.44698906862595    1.49509425433061   -0.58834249313689
H         2.16924993945501    1.25859975099633   -0.86057894922744
H         1.62172065872612    2.49467504666934    0.28669172136692
17
Properties=species:S:1:pos:R:3 6.2.3=T gnorm:=T pbc="F F F" energy:=T -33.093469592564=T xtb:=T 0.000232314392=T 830e466=T
C       0.96993158      -0.91794699       4.83438175 
C       1.65216008       2.11926230      -0.91205237 
S      -0.80192301      -0.42885040       1.25515865 
C       0.49006357       0.74402050       0.81957680 
C       0.63512353       1.14982272      -0.43005295 
O       0.29733117      -2.07939463       4.65805115 
Cl       0.58983129      -2.04292592       1.51830586 
Cl       0.03773525       0.51164760       4.18699219 
O      -1.50189024      -0.70547939       0.02402125 
H       0.30335655      -2.33595472       3.71740404 
H       1.93474915      -0.87195610       4.31961424 
H       1.07787381      -0.73112225       5.90354113 
H       1.08443291       1.07905429       1.65164029 
H      -0.03614277       0.74272739      -1.17828324 
H       1.15774569       2.96161168      -1.39393888 
H       2.28895213       1.64437946      -1.65760216 
H       2.26896932       2.48440445      -0.09505775 
