13
 energy: -16.669036738276 gnorm: 0.000552439830 xtb: 6.2.3 (830e466)
C         1.84338364383541    0.14325478612697    3.58698318521326
C         1.39767678228170    1.36633751886817   -0.09296188875623
C         1.72863598964088    0.98672443523483    2.34936059271352
C         1.50194886443743    0.52224930376300    1.13227139032516
O         1.85872927507198   -1.24374332203854    3.35833113674871
H         2.57507089318738   -1.44250203916309    2.74563329376676
H         2.74420558572431    0.45059916994492    4.14468335229429
H         0.97866118837429    0.32423898784500    4.23472839483256
H         1.84747618280592    2.04782893362406    2.52400192241849
H         1.36767475363897   -0.54078276570274    0.97694438252414
H         0.42302775208743    1.22913828828959   -0.56025431142705
H         2.15501264297557    1.07227798539865   -0.81977646298581
H         1.52898644593872    2.41902871780918    0.14506501233219
13
Properties=species:S:1:pos:R:3 -16.601655033711=T 6.2.3=T gnorm:=T pbc="F F F" energy:=T xtb:=T 830e466=T 0.000562397144=T
C       1.59049048      -0.28311089       2.27103488 
C       1.53039283       0.02081990       0.74853947 
C       2.54923516       0.88580146       2.35379407 
C       2.45632303       1.16354263       1.05738085 
O       2.08097414      -1.56224925       2.56918377 
H       2.36254926      -1.58108239       3.49007213 
H       0.43312497       2.77636640       2.10791018 
H       0.63576234      -0.10368035       2.78888909 
H       3.08541584       1.30994545       3.18368605 
H       2.86661458       1.92919379       0.42393240 
H      -0.15832702       3.27041705       2.22310438 
H       1.96897826      -0.77333126       0.15032109 
H       0.54895614       0.28201746       0.35716164 
