13
 energy: -16.669036738276 gnorm: 0.000552439830 xtb: 6.2.3 (830e466)
C         1.84338364383541    0.14325478612697    3.58698318521326
C         1.39767678228170    1.36633751886817   -0.09296188875623
C         1.72863598964088    0.98672443523483    2.34936059271352
C         1.50194886443743    0.52224930376300    1.13227139032516
O         1.85872927507198   -1.24374332203854    3.35833113674871
H         2.57507089318738   -1.44250203916309    2.74563329376676
H         2.74420558572431    0.45059916994492    4.14468335229429
H         0.97866118837429    0.32423898784500    4.23472839483256
H         1.84747618280592    2.04782893362406    2.52400192241849
H         1.36767475363897   -0.54078276570274    0.97694438252414
H         0.42302775208743    1.22913828828959   -0.56025431142705
H         2.15501264297557    1.07227798539865   -0.81977646298581
H         1.52898644593872    2.41902871780918    0.14506501233219
13
Properties=species:S:1:pos:R:3 6.2.3=T gnorm:=T -16.629867412955=T pbc="F F F" energy:=T xtb:=T 830e466=T 0.000712373565=T
C       1.84611352       0.12197024       4.21353992 
C       1.98729442       1.43116183      -0.66766928 
C       1.33560775       0.68921863       2.91911896 
C       1.12844875      -0.56804237       2.52327201 
O       1.57641915      -1.18910965       3.66943416 
H       2.53197997       0.80318809       0.02463813 
H       2.90669692       0.25122881       4.42598304 
H       1.24989220       0.31045871       5.10538370 
H       1.21142494       1.67416220       2.52832596 
H       0.76163013      -1.11359765       1.67585460 
H       0.92868503       1.22224892      -0.58315113 
H       2.31691879       1.22987459      -1.67862409 
H       2.16937843       2.47188767      -0.43109596 
