13
 energy: -16.669036738276 gnorm: 0.000552439830 xtb: 6.2.3 (830e466)
C         1.84338364383541    0.14325478612697    3.58698318521326
C         1.39767678228170    1.36633751886817   -0.09296188875623
C         1.72863598964088    0.98672443523483    2.34936059271352
C         1.50194886443743    0.52224930376300    1.13227139032516
O         1.85872927507198   -1.24374332203854    3.35833113674871
H         2.57507089318738   -1.44250203916309    2.74563329376676
H         2.74420558572431    0.45059916994492    4.14468335229429
H         0.97866118837429    0.32423898784500    4.23472839483256
H         1.84747618280592    2.04782893362406    2.52400192241849
H         1.36767475363897   -0.54078276570274    0.97694438252414
H         0.42302775208743    1.22913828828959   -0.56025431142705
H         2.15501264297557    1.07227798539865   -0.81977646298581
H         1.52898644593872    2.41902871780918    0.14506501233219
13
Properties=species:S:1:pos:R:3 6.2.3=T gnorm:=T 0.000947001694=T pbc="F F F" energy:=T xtb:=T 830e466=T -16.612383899094=T
C       1.93544889      -0.21492444       3.88908037 
C       1.40745024       2.47528405      -0.30033713 
C       1.61152226      -0.47512023       2.49536099 
C       1.37832030      -0.76293198       1.35749365 
O       2.12914685      -1.39320430       4.64388749 
H       2.76355901      -1.95637565       4.18656721 
H       2.83239478       0.42607603       3.93093896 
H       1.10486735       0.31379612       4.36758676 
H       1.56460915       2.42835541       0.76987954 
H       1.15879597      -0.97522677       0.35402057 
H       0.44184305       2.04843278      -0.53860075 
H       2.18546202       1.91415155      -0.80145683 
H       1.43707013       3.50633744      -0.62941082 
