17
 energy: -33.120047581750 gnorm: 0.000631728345 xtb: 6.2.3 (830e466)
C         1.20645603667006   -0.30688555501593    3.44105949675074
C         1.69759468866871    1.71482608762829    0.15137358602285
S        -1.20985421096685   -0.41958358768815    1.32328410934189
C         1.09062403249752    0.73786261215761    2.36070430126812
C         1.83432862406127    0.73583926779160    1.26152464956132
O         0.47806094117617   -1.48482374257698    3.12313369447144
Cl       -0.08297178979111   -1.60818056069583    0.00636536262507
Cl       -2.88474717120321   -1.67519015832308    1.37565315512115
O        -1.60292641158646    0.71778248610252    0.55859801750887
H         0.93142255790348   -1.94791997868638    2.40840135863339
H         2.26002113156923   -0.55632192106403    3.62025222063529
H         0.77236474110413    0.05804326526707    4.37361134144916
H         0.35007091405659    1.51057093756832    2.50893041519609
H         2.59808473565257   -0.02094320531257    1.12638136781114
H         0.87028939368244    2.39528707117446    0.33091629968964
H         1.52200677376891    1.18556660679761   -0.78441190642404
H         2.61746501274104    2.28737037486419    0.03612253023766
17
Properties=species:S:1:pos:R:3 6.2.3=T gnorm:=T pbc="F F F" energy:=T 0.000636690309=T 830e466=T xtb:=T -33.072720334749=T
C       1.51629906      -0.16435485       3.56518878 
C       1.48946043       1.74977549       0.18076422 
S      -1.38950997      -0.61434372       0.29758297 
C       1.66729762       0.87676861       2.49411580 
C       1.44342421       0.67586274       1.20367180 
O       0.77007116      -1.29215037       3.19176437 
Cl      -0.54438627      -2.55469937       0.36398218 
Cl      -0.21151093       2.23927350      -0.20334198 
O      -2.80848923      -0.75220770       0.10323465 
H       1.23438872      -1.77891232       2.50147090 
H       2.51496089      -0.45282020       3.93211214 
H       0.97399637       0.27662735       4.40757363 
H       1.97508933       1.84885355       2.85348334 
H       1.14487635      -0.29612613       0.83745167 
H      -1.24409619      -0.49713820       1.71135019 
H       1.92377005       1.41339261      -0.75858721 
H       1.99264840       2.64549902       0.54008254 
