17
 energy: -33.115589373987 gnorm: 0.000683741111 xtb: 6.2.3 (830e466)
C         1.35139549472572   -0.56954241200681    3.20643417317846
C        -1.40499881992565    1.13389009326618    1.03158551497113
S         2.98436984028134    0.21101262734300   -0.49234163291116
C         0.41931205109232    0.42956193336624    2.58102776127482
C        -0.47471409821250    0.14474574186798    1.64969072417738
O         1.34389283932398   -1.83844346355296    2.61034969420591
Cl        4.27386138357696    0.69894766165784    1.06844186077819
Cl        1.78093379171417    1.89917477724333   -0.40584655896176
O         2.18738015147584   -0.88033894620863   -0.02629556213215
H         1.54724031349812   -1.73050369776148    1.66994955711648
H         2.37236611016897   -0.14925152552146    3.21160311129011
H         1.06278255209761   -0.72731645442564    4.25233969712115
H         0.52493852108462    1.43771651073246    2.96244165065425
H        -0.57196329818497   -0.87252701334388    1.29442776378662
H        -2.43723752099462    0.86461193940889    1.25493306437099
H        -1.29403707931284    1.13360923676608   -0.05302488908570
H        -1.21720223241061    2.13794299116810    1.40627407016398
17
Properties=species:S:1:pos:R:3 6.2.3=T gnorm:=T pbc="F F F" -33.094099365634=T energy:=T xtb:=T 830e466=T 0.000153876382=T
C       1.84133058      -0.78007857       3.38605463 
C      -0.12076951       1.25461463      -0.76452220 
S       1.35195998       0.16823775      -0.68392001 
C       0.89510603       0.38461365       3.30404628 
C      -0.32656717       0.28509850       2.81529657 
O       1.37269701      -1.96065105       2.80646061 
Cl       2.49652535       1.49118170       0.48325115 
Cl      -1.39565195       1.63806979       2.69635339 
O       0.97139999      -0.93233425       0.18060552 
H       1.20970778      -1.79523559       1.86346186 
H       2.80127070      -0.47237756       2.93851738 
H       2.03076280      -1.00937861       4.44118863 
H       1.28451697       1.32590895       3.66391954 
H      -0.75288357      -0.63757700       2.45571695 
H      -0.88983423       0.72283133      -1.31652250 
H       0.15302009       2.16469544      -1.28538180 
H      -0.47427085       1.47567089       0.23746400 
