13
 energy: -16.669036738276 gnorm: 0.000552439830 xtb: 6.2.3 (830e466)
C         1.84338364383541    0.14325478612697    3.58698318521326
C         1.39767678228170    1.36633751886817   -0.09296188875623
C         1.72863598964088    0.98672443523483    2.34936059271352
C         1.50194886443743    0.52224930376300    1.13227139032516
O         1.85872927507198   -1.24374332203854    3.35833113674871
H         2.57507089318738   -1.44250203916309    2.74563329376676
H         2.74420558572431    0.45059916994492    4.14468335229429
H         0.97866118837429    0.32423898784500    4.23472839483256
H         1.84747618280592    2.04782893362406    2.52400192241849
H         1.36767475363897   -0.54078276570274    0.97694438252414
H         0.42302775208743    1.22913828828959   -0.56025431142705
H         2.15501264297557    1.07227798539865   -0.81977646298581
H         1.52898644593872    2.41902871780918    0.14506501233219
13
Properties=species:S:1:pos:R:3 6.2.3=T gnorm:=T pbc="F F F" energy:=T 0.000255575748=T 830e466=T xtb:=T -16.612623653971=T
C       1.55354839       0.57005269       3.57296753 
C       1.31894719       1.21449070       0.20418358 
C       1.80623524       1.79280655       2.73830400 
C       1.45833447       1.07057505       1.66739876 
O       1.19864522      -0.11186736       2.35103379 
H       3.05024858      -2.41967011       1.05589265 
H       2.41848320       0.10575069       4.04627610 
H       0.71119748       0.60582325       4.26337482 
H       2.12486336       2.78943992       2.94848440 
H       2.46190436      -2.01499559       1.36846817 
H       0.30392391       0.96303274      -0.10083643 
H       1.99969444       0.53237366      -0.30433257 
H       1.54446415       2.23683781      -0.08620479 
