17
 energy: -33.119466609721 gnorm: 0.000481769081 xtb: 6.2.3 (830e466)
C         2.23338183921341   -0.84356052403039    2.64297065840802
C         0.85239957121673    2.01014710368935    0.36504084122392
S        -1.09832425672319   -0.39521903216732    1.09866117074152
C         1.62502262593503    0.43711977086123    2.14947278695059
C         1.41221043591238    0.72200499581190    0.87057686212508
O         1.44987250264258   -1.46390454968091    3.63296081426657
Cl       -1.72576355645721    0.92961078105647    2.56936347760879
Cl       -2.98266320731390   -0.74666340950959    0.24975119921018
O        -0.76171718110633   -1.60929963151753    1.77515210228596
H         0.61520314116726   -1.73978033709511    3.22846612941837
H         2.41398068502477   -1.52474265118709    1.79945839880065
H         3.19278886751407   -0.62530663631812    3.12560323242606
H         1.34379772703874    1.13455367407250    2.92668775947113
H         1.72093773122972    0.01586198578097    0.10932353485117
H         0.04785583492447    1.83192085253569   -0.34688243862100
H         1.62981037047917    2.56854582456573   -0.15576410619459
H         0.47938686930297    2.62203178313328    1.18104757702786
17
Properties=species:S:1:pos:R:3 0.000746225245=T 6.2.3=T gnorm:=T -33.129532522104=T pbc="F F F" energy:=T xtb:=T 830e466=T
C       2.41971290      -0.34857060       2.62800754 
C       0.74209023       2.12167681       0.15832488 
S      -0.54047919      -1.10455403       1.91213264 
C       1.81632409       0.86629217       2.02373262 
C       1.37492720       0.92563570       0.77448976 
O      -1.52534326      -1.95694226       2.88609964 
Cl       1.31990121      -0.98825421       3.90455650 
Cl      -2.05864485      -0.44217675       0.54123538 
O       0.21672018      -2.07121186       1.19747579 
H      -2.15131698      -1.42891978       3.38733555 
H       2.53634627      -1.15101812       1.90146453 
H       3.36316716      -0.13927305       3.13136859 
H       1.72979574       1.72279667       2.67857060 
H       1.47599162       0.06425188       0.12814610 
H      -0.26119589       1.86591224      -0.18037940 
H       1.30952972       2.44178319      -0.71466404 
H       0.68065385       2.94589200       0.86399335 
