17
 energy: -33.124175552128 gnorm: 0.000995607218 xtb: 6.2.3 (830e466)
C         0.61855819860604    0.86893364415857    3.16170109392652
C         1.98707602874067    1.24492252381843   -0.47400323861224
S        -0.71723191422279   -1.67169913280093    1.89186590650970
C         1.08933144363906    1.40451566530724    1.84367238719636
C         1.54181061152526    0.68182003584748    0.83254605578954
O         0.79672929641310   -0.52741667585805    3.32393954560108
Cl       -1.53601839497193   -2.99338508821090    0.45596767725293
Cl       -0.94600507584008   -2.95347907290637    3.51663767575161
O        -1.69610509028750   -0.64700674734868    2.02911381274980
H         1.72611494600470   -0.73878919256676    3.16798505577534
H         1.12132725794944    1.40211736788116    3.98085246797058
H        -0.45814320035441    1.03635272488029    3.25817452663421
H         1.01903214302663    2.47985109682000    1.76009494097996
H         1.59880755817688   -0.39736475770024    0.90893866790946
H         1.89037642737138    2.32704658119519   -0.48822727506144
H         1.38610867175665    0.82661871355958   -1.28040898843849
H         3.02633109245990    0.98017231392137   -0.66685031193482
17
Properties=species:S:1:pos:R:3 6.2.3=T gnorm:=T 0.000881465794=T pbc="F F F" -33.094008660783=T energy:=T xtb:=T 830e466=T
C       0.07575974      -0.03277894       2.26916652 
C       2.30918445       1.66882364      -0.40350862 
S      -1.00600626      -1.12561964       1.11869182 
C       0.70875042       0.97706465       1.37726358 
C       1.67549736       0.68572428       0.51526549 
O       0.95081589      -0.86625198       2.96713899 
Cl      -1.83634948      -2.25941226       2.65999580 
Cl       0.15891109      -1.14731450       5.98236517 
O      -2.02678419      -0.23371640       0.62345522 
H       1.74272423      -1.02692616       2.43954820 
H       0.51301500      -1.11310528       4.74862896 
H      -0.60937372       0.41402574       2.98987726 
H       0.30970033       1.97819011       1.43082998 
H       2.05669214      -0.32731909       0.43673886 
H       1.89526645       2.66241825      -0.25731334 
H       2.14466510       1.36605213      -1.43703869 
H       3.38563144       1.70335546      -0.23910519 
