17
 energy: -33.115066411087 gnorm: 0.000403722514 xtb: 6.2.3 (830e466)
C         1.82097726414759   -0.86416755818148    3.02986425553304
C         1.40612312159064    1.81165906373902    0.22556339715462
S        -1.32861811967280    0.28594048319782    0.90148741045916
C         1.62390298108452   -0.18183302186425    1.70856323608463
C         1.63948419070995    1.12915517407246    1.53093289703509
O         0.66193135075256   -1.55228664073998    3.44881290117590
Cl       -1.55871666618453   -1.79546365748446    0.91590976101881
Cl       -1.83240062762760    0.64847446483039    2.87884665863748
O        -2.40404140976169    0.78360816982811    0.10695184366340
H         0.40133450351095   -2.17878212273478    2.76262394909108
H         2.67227337659294   -1.56064512318772    2.96574916666969
H         2.02755251742780   -0.13328808357607    3.81435594171004
H         1.42763955740514   -0.84432598873871    0.87353056935660
H         1.84281199567690    1.78118486567495    2.36981284695240
H         1.24588797587651    1.09370955844040   -0.57462838250038
H         2.26424594873337    2.43307508914553   -0.02785055282392
H         0.53782203973844    2.46727532757815    0.29146410078304
17
Properties=species:S:1:pos:R:3 6.2.3=T gnorm:=T pbc="F F F" 0.000432560362=T energy:=T xtb:=T -33.100160302346=T 830e466=T
C       1.20267969      -0.51723760       3.14189378 
C       1.52274266       1.93549467       0.11129334 
S      -0.85827101       0.94860594       1.79196530 
C       0.88931980       0.46684072       2.04379281 
C       1.79120723       0.97860171       1.21796082 
O       0.30140983      -1.58176475       3.21462491 
Cl       0.21098751      -2.35288802       0.07801334 
Cl      -1.50001360       0.82871649       3.75949206 
O      -1.44483712      -0.18628494       1.07034340 
H       0.34381982      -2.09443027       2.39242790 
H       2.23540213      -0.87358387       3.00974363 
H       1.14249797      -0.00929827       4.11162499 
H      -0.63059768      -1.42165069       0.49048360 
H       2.82815450       0.68019577       1.32484792 
H       1.80639378       1.47649007      -0.83518831 
H       2.13303524       2.82897759       0.23551880 
H       0.47427923       2.21650547       0.06315173 
