13
 energy: -16.669036738276 gnorm: 0.000552439830 xtb: 6.2.3 (830e466)
C         1.84338364383541    0.14325478612697    3.58698318521326
C         1.39767678228170    1.36633751886817   -0.09296188875623
C         1.72863598964088    0.98672443523483    2.34936059271352
C         1.50194886443743    0.52224930376300    1.13227139032516
O         1.85872927507198   -1.24374332203854    3.35833113674871
H         2.57507089318738   -1.44250203916309    2.74563329376676
H         2.74420558572431    0.45059916994492    4.14468335229429
H         0.97866118837429    0.32423898784500    4.23472839483256
H         1.84747618280592    2.04782893362406    2.52400192241849
H         1.36767475363897   -0.54078276570274    0.97694438252414
H         0.42302775208743    1.22913828828959   -0.56025431142705
H         2.15501264297557    1.07227798539865   -0.81977646298581
H         1.52898644593872    2.41902871780918    0.14506501233219
13
Properties=species:S:1:pos:R:3 6.2.3=T gnorm:=T pbc="F F F" -16.681149011103=T 0.000626748678=T energy:=T xtb:=T 830e466=T
C       1.60041118       0.01467460       3.77607248 
C       1.51457170       1.04601648       0.07868249 
C       1.63286987       0.84936143       2.57357349 
C       2.16217201       0.32718981       1.25809509 
O       0.43624425       0.31526854       3.06275493 
H       3.24545625       0.47128455       1.23546747 
H       1.93334835      -1.01570898       3.71670874 
H       1.68347580       0.47169926       4.75550930 
H       1.73124240       1.92564839       2.70912320 
H       1.95397631      -0.74229200       1.19460291 
H       0.43573978       0.91361513       0.11204556 
H       1.88764876       0.64683998      -0.86131125 
H       1.73333333       2.11105281       0.11368558 
