13
 energy: -16.669036738276 gnorm: 0.000552439830 xtb: 6.2.3 (830e466)
C         1.84338364383541    0.14325478612697    3.58698318521326
C         1.39767678228170    1.36633751886817   -0.09296188875623
C         1.72863598964088    0.98672443523483    2.34936059271352
C         1.50194886443743    0.52224930376300    1.13227139032516
O         1.85872927507198   -1.24374332203854    3.35833113674871
H         2.57507089318738   -1.44250203916309    2.74563329376676
H         2.74420558572431    0.45059916994492    4.14468335229429
H         0.97866118837429    0.32423898784500    4.23472839483256
H         1.84747618280592    2.04782893362406    2.52400192241849
H         1.36767475363897   -0.54078276570274    0.97694438252414
H         0.42302775208743    1.22913828828959   -0.56025431142705
H         2.15501264297557    1.07227798539865   -0.81977646298581
H         1.52898644593872    2.41902871780918    0.14506501233219
13
Properties=species:S:1:pos:R:3 -16.672651752897=T 6.2.3=T gnorm:=T pbc="F F F" 0.000659549943=T energy:=T xtb:=T 830e466=T
C       2.08994520      -0.27359101       4.12325972 
C       1.31407845       1.54122503      -0.27995553 
C       1.71436138       0.51261668       1.94734031 
C       1.49423099       0.38629373       0.64747360 
O       1.87722787      -0.56972497       2.76579705 
H       2.20626569      -1.22870045       4.63262053 
H       2.99727053       0.32442458       4.26496030 
H       1.23735878       0.26379212       4.55367170 
H       1.77930270       1.48458176       2.42559921 
H       1.44012345      -0.60249707       0.21712083 
H       0.33834655       1.49067539      -0.76346632 
H       2.07139646       1.52016681      -1.06376245 
H       1.39058197       2.48538743       0.25435103 
