17
 energy: -33.120957307366 gnorm: 0.000519977716 xtb: 6.2.3 (830e466)
C         1.25711545206167    0.14739510569271    3.37951244041544
C         1.52391576610570    1.59855956261313   -0.23711411885198
S        -1.12715696933201   -0.82844162885387    1.61745059699384
C         1.41360429891420    1.05536406964874    2.19272761476969
C         1.41021370242135    0.67452883761618    0.92511518727800
O         1.02754940196032   -1.20643532268968    3.06094106161276
Cl       -0.44854875594437   -2.58167763186673    0.69729565918832
Cl       -2.52978608117321   -1.73753467774973    2.87496144922593
O        -1.88160799711412   -0.14763297208494    0.61483890668594
H         1.80155741924315   -1.55765231023658    2.60667028381315
H         2.13765425931948    0.24506008804847    4.03210331524646
H         0.38405338717085    0.46291625365207    3.96116805337524
H         1.53249057221742    2.09809252632423    2.45224193631524
H         1.31042890839553   -0.37184557316552    0.66534211384851
H         0.61839642954544    1.53032337592204   -0.83857337135971
H         2.36328265120248    1.31504745369690   -0.87042646364162
H         1.65495755501154    2.62722284343340    0.08775533508211
17
Properties=species:S:1:pos:R:3 0.000952802150=T 6.2.3=T gnorm:=T pbc="F F F" energy:=T xtb:=T 830e466=T -33.094479707243=T
C       1.53980124      -0.02377391       3.21525821 
C       1.47331526       1.61540357      -0.33005401 
S      -1.27190312      -0.67151951       2.18811398 
C       1.35117287       0.95730552       2.08998845 
C       1.71416418       0.72502220       0.83537105 
O       0.87598700      -1.25600901       2.97600377 
Cl       2.52039448      -0.75977529       0.42185843 
Cl      -3.35634952      -0.26580212       2.15726365 
O      -0.90876833      -0.95440817       0.81916069 
H       1.23830203      -1.62256982       2.15189955 
H       2.60936039      -0.21743959       3.37429300 
H       1.11263242       0.36866826       4.13869250 
H       0.85938130       1.88844913       2.32054801 
H      -1.53047650      -1.95339901       2.74870352 
H       0.75385702       1.14236211      -0.99838828 
H       2.39439636       1.78118121      -0.88660651 
H       1.07285292       2.56959442      -0.00009604 
