17
 energy: -33.125134306508 gnorm: 0.000607151482 xtb: 6.2.3 (830e466)
C         1.15310344873318    0.55887827658024    3.34972681527594
C         2.08667338787461    0.54465595314614   -0.44316418221655
S        -1.43771491164637   -0.07772711392421    1.96619049036520
C         1.69937294735150    0.89096413309222    1.99135182572429
C         1.54285601378846    0.17088762402226    0.89243610844101
O         0.36323405536913   -0.61312557159884    3.40256507092775
Cl       -2.46678997168171    0.48502697791965    0.20558268792583
Cl       -1.35716920397661   -2.12473219576806    1.50189115184111
O        -2.39857008564494    0.06046163350192    3.00184556593011
H         0.88408537229900   -1.36373274499913    3.08791320845437
H         1.98111417866923    0.48008400499533    4.06878254639714
H         0.49607965437454    1.36590966819089    3.69034730008488
H         2.26670758631977    1.81091059248828    1.96611388175412
H         0.98252724700928   -0.75485879748655    0.90808738034462
H         2.62562162471745    1.48727365373668   -0.40141035297371
H         2.75743835181270   -0.23170706053155   -0.80882945895355
H         1.26952030466244    0.63413096662684   -1.15753003935752
17
Properties=species:S:1:pos:R:3 0.000476226397=T gnorm:=T pbc="F F F" -33.097218883131=T energy:=T xtb:=T 6.2.3=T 830e466=T
C       2.20042823       0.34420909       4.06532629 
C       0.42811629       0.50827186       0.60954416 
S      -1.42372505       0.64251072       0.71182449 
C       1.64878254       0.80695481       2.74872154 
C       0.98521810       0.03747639       1.89756361 
O       2.03532184      -1.02373279       4.32622150 
Cl      -0.24424273      -0.13615036      -2.89179398 
Cl      -1.79244327      -1.39563192       0.94841017 
O      -1.82818396       0.97570332      -0.65043910 
H       2.49645387      -1.52908574       3.64711737 
H       3.26375182       0.62945897       4.12555443 
H       1.67587340       0.86437703       4.87465598 
H       1.84105997       1.84770095       2.52551862 
H       0.78937068      -0.99684128       2.14468256 
H      -1.03641866       0.40251811      -2.00266681 
H       0.63994138      -0.16709438      -0.21818217 
H       0.76878555       1.51265522       0.35984134 
