13
 energy: -16.669036738276 gnorm: 0.000552439830 xtb: 6.2.3 (830e466)
C         1.84338364383541    0.14325478612697    3.58698318521326
C         1.39767678228170    1.36633751886817   -0.09296188875623
C         1.72863598964088    0.98672443523483    2.34936059271352
C         1.50194886443743    0.52224930376300    1.13227139032516
O         1.85872927507198   -1.24374332203854    3.35833113674871
H         2.57507089318738   -1.44250203916309    2.74563329376676
H         2.74420558572431    0.45059916994492    4.14468335229429
H         0.97866118837429    0.32423898784500    4.23472839483256
H         1.84747618280592    2.04782893362406    2.52400192241849
H         1.36767475363897   -0.54078276570274    0.97694438252414
H         0.42302775208743    1.22913828828959   -0.56025431142705
H         2.15501264297557    1.07227798539865   -0.81977646298581
H         1.52898644593872    2.41902871780918    0.14506501233219
13
Properties=species:S:1:pos:R:3 6.2.3=T gnorm:=T pbc="F F F" energy:=T -16.678503329771=T xtb:=T 830e466=T 0.000444523496=T
C       1.84400376       1.28027567       2.16914761 
C       1.97746838       1.95303136       0.80247258 
C       0.89114365       0.12279090       2.11119069 
C       1.17909660      -1.15184155       2.33738089 
O       2.38138338      -1.67707185       2.68270376 
H       3.03957128      -0.97240377       2.72798948 
H       2.83446975       0.96498786       2.51029279 
H       1.46968629       2.01288154       2.89040798 
H      -0.12246627       0.37173444       1.83853614 
H       0.43011920      -1.92705157       2.26742195 
H       1.00739851       2.30288470       0.45804874 
H       2.36687433       1.24998932       0.06950623 
H       2.65174114       2.80444295       0.85991116 
