13
 energy: -13.519902092354 gnorm: 0.000168589225 xtb: 6.2.3 (830e466)
C        -1.76908568941329    1.20306102691967    1.08259685386176
C         1.01176959896437    1.20629026534937    0.79773245911741
C        -0.35667842639206   -1.20862527410383    1.12392341072287
P        -0.46400146674070    0.33071455840610    0.09714534567946
H        -1.52663225789965    1.20993307844132    2.14462200536461
H        -1.85939343425236    2.22679929920491    0.72500602622462
H        -2.72289288927562    0.70140327242452    0.93198051084449
H        -0.24908151175629   -0.97370045356582    2.18221398690923
H        -1.25816200988977   -1.79925800447437    0.97379614406411
H         0.49769723327188   -1.79660185810059    0.79465264598529
H         0.98955361161018    1.21329793700610    1.88685948701355
H         1.02543094416320    2.22999547556443    0.42910201770372
H         1.91641629761010    0.70665067692819    0.45701910650888
13
Properties=species:S:1:pos:R:3 6.2.3=T gnorm:=T pbc="F F F" 0.000519391503=T energy:=T xtb:=T -13.455069183977=T 830e466=T
C      -1.24105682       1.31358717       0.24093561 
C       0.26157387       1.32972609       0.16096733 
C      -0.42510615      -1.32850093       0.82660682 
P      -0.51698851      -0.15110418      -0.61135433 
H      -0.17098029       1.06595664       4.31923624 
H      -1.77323957       2.02128710      -0.38014522 
H      -1.69877688       1.16407457       1.20942040 
H      -0.39706673      -0.80326443       1.77825169 
H      -1.29119395      -1.98769523       0.79908688 
H       0.46944184      -1.94051881       0.72310292 
H       0.48573628       1.32918159       3.99656558 
H       0.71049329       2.04843413      -0.51109081 
H       0.82210362       1.18879629       1.07506690 
