20
 energy: -23.871079602776 gnorm: 0.000316369197 xtb: 6.2.3 (830e466)
C        -2.00816253509148    0.34539267654152    0.45793895590190
C         0.67700742055777    1.08322361383245    0.58916890076665
C        -0.25172705456015   -1.06725573276346    2.09339417049366
C        -0.34301575347240   -0.56957447208729   -3.02371752057023
C         0.84818032600944   -1.41601369485951   -3.00279198295889
P        -0.71912457320136    0.69091241734603    1.74328552300122
O         0.00279427450036   -1.31843768842025   -1.89677863225844
H        -1.63128792264645   -0.35683570999637   -0.28377167537402
H        -2.29046302960969    1.27838896846607   -0.02640885265524
H        -2.88977289217061   -0.07116771140117    0.94091625440939
H         0.64223718214086   -1.08328658528785    2.71395907382864
H        -1.05927789250164   -1.54935767918041    2.64089387350599
H        -0.06500810873760   -1.60737224262749    1.16590048065906
H         1.60153793147323    1.15744965368581    1.15850301439952
H         0.48881617663818    2.04345345359842    0.11201751512833
H         0.77270155195452    0.30574198097846   -0.16668483112852
H        -0.23725201981684    0.50454708503961   -2.92357531501963
H        -1.22537786914571   -0.90377071959029   -3.55709995155608
H         0.83588587014352   -2.36750477969107   -3.52117492720222
H         1.82477891753439   -0.95953283358248   -2.88907407337125
20
Properties=species:S:1:pos:R:3 6.2.3=T gnorm:=T -23.898752152682=T pbc="F F F" energy:=T xtb:=T 830e466=T 0.000276108681=T
C      -1.53274168       0.28604929      -0.57156145 
C       0.95009171       1.33929434       0.45044106 
C      -0.07878710      -1.03011056       1.56385272 
C      -0.77554328      -0.00080361      -1.87124701 
C      -0.03048131      -1.33848809      -1.93518302 
P      -0.66369926       0.65518300       1.04849281 
O      -0.83771918      -2.45362212      -1.65633609 
H      -1.18049193      -2.36184381      -0.75965366 
H      -2.14120132       1.18049539      -0.74648335 
H      -2.24387864      -0.51895229      -0.35834442 
H       0.47144996      -0.91742641       2.49685674 
H      -0.94489508      -1.66003042       1.76065245 
H       0.56914397      -1.50677571       0.83259168 
H       1.56033491       1.56828810       1.32235215 
H       0.76271872       2.26609670      -0.08781528 
H       1.48678295       0.64247954      -0.18951335 
H      -0.06065397       0.79774495      -2.07360126 
H      -1.51478156       0.00559268      -2.67726042 
H       0.33423324      -1.49130386      -2.95461951 
H       0.84358885      -1.32286710      -1.26872080 
