20
 energy: -23.875540098104 gnorm: 0.000946408496 xtb: 6.2.3 (830e466)
C        -1.58306841117614    0.73305854835606    0.29185899795793
C         0.99374572407664    1.34502728224497    1.14443410042106
C         0.15039946532814   -1.30479055191422    1.10471311411673
C        -0.87584127012289   -0.79936790753990   -2.97444559195997
C         0.07755276022740   -1.84249238809274   -2.60874742016763
P         0.14952174113527    0.16417137873069   -0.01869238853167
O        -1.01727428097653   -1.53937224531684   -1.80059037317677
H        -1.78552262728625    0.80109548142414    1.36043800485480
H        -1.72646073832080    1.71112464592625   -0.16532506484713
H        -2.26721356204487    0.02474176651204   -0.16809948895648
H         1.16867725947462   -1.67736442865671    1.20630758420828
H        -0.23825810491985   -1.04327354322012    2.08851421318633
H        -0.46630589065225   -2.08112881260557    0.65986979032334
H         2.04017176846378    1.06105510985673    1.23940088759834
H         0.53074630275124    1.34682183416673    2.13036675763612
H         0.94968922783998    2.34837544228421    0.72545344613505
H        -0.59284042826292    0.23837026653859   -2.83467967786564
H        -1.61744498667105   -0.99191448207704   -3.74150431583129
H         0.04094286182628   -2.80572670895065   -3.10569945681711
H         1.04237318931316   -1.54961068766840   -2.20867311828053
20
Properties=species:S:1:pos:R:3 0.000376388373=T 6.2.3=T gnorm:=T -23.945932643047=T pbc="F F F" energy:=T xtb:=T 830e466=T
C      -2.24856309       0.82029547      -1.48304986 
C       1.35238649       0.69514712       1.05700296 
C       0.78786773      -1.98243509       1.63169181 
C      -1.65205582      -0.36751668      -2.22791390 
C      -0.17092288      -0.54626805      -1.91049356 
P       1.41314717      -0.97210142       0.21550890 
O      -0.05533844      -0.93472493      -0.55549735 
H      -2.11747018       0.68900177      -0.41216921 
H      -1.75657835       1.74373481      -1.78195396 
H      -3.31132500       0.90917874      -1.69507862 
H       1.49728544      -1.93253229       2.45528432 
H      -0.18396614      -1.60615851       1.94859768 
H       0.68455381      -3.02017030       1.31937274 
H       2.13764403       0.74892278       1.80698037 
H       0.38058631       0.84760572       1.52565375 
H       1.52429013       1.48349933       0.32464947 
H      -1.76134966      -0.23044477      -3.30497128 
H      -2.17547634      -1.28076479      -1.94085679 
H       0.26348464      -1.31849465      -2.55652955 
H       0.36539014       0.39302574      -2.09132791 
