20
 energy: -28.385034977659 gnorm: 0.000971306127 xtb: 6.2.3 (830e466)
C        -1.64382603391194    1.70504341548034    0.59300646223842
C         0.31043342206470    0.33379138930095    0.46997725984596
C         0.34019491693499    0.31685461193109   -0.91975841349194
C         1.31493555782795   -0.32372250032703    1.18174730124040
C         1.36236972479374   -0.34720048960189   -1.57776166443360
C         2.32683425808164   -0.98183916283335    0.51475385253949
C         2.35697098518306   -0.99637941272419   -0.87107896879099
C        -2.69523100135972    0.89349594756409   -0.11228813083327
C        -2.80819487628597   -0.41911489804014   -0.04665028040533
O        -0.63477849738254    0.95745414058162    1.23003378479036
H        -2.11904564235089    2.27202146758862    1.40339506857444
H        -1.20355564158155    2.43115312925269   -0.10711628147755
H        -0.43137261100546    0.80193858908620   -1.49716084910344
H         1.27629596555863   -0.30117186293184    2.25958606366041
H         1.37280993289984   -0.35541967836631   -2.65799915892777
H         3.09781493146882   -1.48580811670269    1.07871852602115
H         3.14856446999776   -1.51174069000056   -1.39345883483526
H        -3.39076842041471    1.49028421487302   -0.68959643008313
H        -3.58732497559103   -0.94774841314312   -0.56804753100561
H        -2.12243646492736   -1.01671168098766    0.53079822447726
20
Properties=species:S:1:pos:R:3 6.2.3=T gnorm:=T pbc="F F F" -28.395122124653=T 0.000588742742=T energy:=T xtb:=T 830e466=T
C      -1.09358877       1.17499739      -0.70324648 
C       0.32940269      -0.10966148       0.94403459 
C       0.16606247       0.42358717      -0.33831102 
C       1.50298405      -0.77923263       1.27544195 
C       1.18448160       0.24928545      -1.26412294 
C       2.50690888      -0.93351577       0.34065888 
C       2.34797594      -0.42242000      -0.93611720 
C      -2.30018125       0.28261307      -0.66259529 
C      -3.38083586       0.51399511       0.06180482 
O      -0.62118437       0.00618436       1.91072014 
H      -1.23525226       2.02892105      -0.03194113 
H      -0.98071012       1.56631506      -1.71768052 
H      -1.42312846       0.39189060       1.53445121 
H       1.59962692      -1.17080230       2.27567029 
H       1.06356018       0.65462614      -2.25899184 
H       3.41312260      -1.45565220       0.60845102 
H       3.12766134      -0.54282572      -1.67282850 
H      -2.23262311      -0.60401919      -1.27953089 
H      -4.22498136      -0.15378655       0.05632294 
H      -3.47861112       1.39468046       0.67890996 
