20
 energy: -28.385040328429 gnorm: 0.000722210494 xtb: 6.2.3 (830e466)
C        -2.01896195746836    0.07875770048151   -1.34822668330710
C         0.17146776974446   -0.36396039725791   -0.50051084124685
C         0.42118324837757    0.95969433341401   -0.15688301172710
C         1.16621209985787   -1.32126787658228   -0.29482312576562
C         1.65055561552334    1.31184870325313    0.37578671075337
C         2.38496319330604   -0.95840113761552    0.23877521919690
C         2.63550244026889    0.36305593135346    0.57507658066414
C        -2.76929199985061    0.61369343207695   -0.15992776865117
C        -2.62586079014959    0.18483297424939    1.07930690440322
O        -0.98820813520254   -0.83131373186030   -1.04504380840486
H        -1.63308889790295    0.91410888530282   -1.95190003203124
H        -2.71361595767216   -0.49114566714125   -1.97782417809154
H        -0.33425062361785    1.71900203004848   -0.28560453258735
H         0.95467777096262   -2.34426252765309   -0.56453404690684
H         1.83256507089406    2.34379973526853    0.63872331320882
H         3.14539400877710   -1.70988224540673    0.39200377491916
H         3.58991777642435    0.64787020205496    0.99114443258395
H        -3.47735994362312    1.39401706448086   -0.40750084215996
H        -1.92486035792206   -0.59418829699865    1.33018975893676
H        -3.19593033072715    0.59895088853162    1.89267217621322
20
Properties=species:S:1:pos:R:3 6.2.3=T gnorm:=T pbc="F F F" energy:=T 0.000340243300=T xtb:=T -28.382670517607=T 830e466=T
C      -2.13991037      -0.68506469      -1.44393638 
C      -0.08718037       0.62590612       0.46936084 
C       0.70545879       1.73637457       0.76216309 
C       0.53905731      -0.57774414       0.14844824 
C       2.08294881       1.65751999       0.69835629 
C       1.91932182      -0.65496867       0.09664229 
C       2.69493416       0.46074574       0.36193995 
C      -2.43973559       0.19750742      -0.26535379 
C      -1.54134175       0.75594944       0.54217862 
O      -2.10799488      -2.06117561      -1.10386029 
H      -1.15135563      -0.46378338      -1.85226262 
H      -2.89285668      -0.51402371      -2.22761131 
H       0.23035730       2.67123035       1.02546285 
H      -0.05423674      -1.45963015      -0.03577578 
H       2.68283666       2.52931860       0.91717997 
H       2.39222885      -1.59426226      -0.15098094 
H       3.77237579       0.39716733       0.31708604 
H      -3.49199054       0.37514822      -0.07920922 
H      -2.94528811      -2.29363666      -0.68727440 
H      -1.89661883       1.41263147       1.32834653 
