20
 energy: -28.385041771708 gnorm: 0.000689947019 xtb: 6.2.3 (830e466)
C        -1.82861987486405    1.29453599418842    0.92327520730734
C         0.22457953265657    0.12399182358100    0.57028870964840
C         0.43195386412212    0.65764215747077   -0.69678249342046
C         1.17618446262431   -0.74278974631547    1.10926886821975
C         1.57865441807372    0.33096661122097   -1.40145156490350
C         2.31277310082395   -1.06243996083307    0.39612252805626
C         2.52231217710519   -0.52412785462025   -0.86387302281379
C        -2.72741988694282    0.78826043004634   -0.17104689028102
C        -2.74905564510608   -0.45321179858298   -0.61580005157823
O        -0.85295930664139    0.38136682772186    1.36601427218341
H        -2.43636273542409    1.50237603699148    1.81265909859288
H        -1.36091027047242    2.24125573810344    0.61280221850388
H        -0.29552115294652    1.31378464224570   -1.14837920385490
H         0.99863374536321   -1.15133133515501    2.09185490556022
H         1.72871147175513    0.75201240124953   -2.38498403885813
H         3.04059969146050   -1.73451539914403    0.82631619803113
H         3.41243101123585   -0.77224730539420   -1.42174827009086
H        -3.39215446528732    1.54248747635347   -0.57184277903704
H        -3.41939981071941   -0.76511882680743   -1.39751431757598
H        -2.09332032681625   -1.20789791232076   -0.21416937368939
20
Properties=species:S:1:pos:R:3 6.2.3=T gnorm:=T -28.383684695066=T pbc="F F F" energy:=T xtb:=T 0.000648301711=T 830e466=T
C      -1.40415895       1.35074863       1.70122058 
C      -0.01632475      -0.16000739       0.56792744 
C      -0.17407032      -0.05421856      -0.82221426 
C       1.23074074      -0.44348726       1.10882287 
C       0.96027250      -0.21445091      -1.61952932 
C       2.33323950      -0.62714395       0.29502085 
C       2.19660035      -0.50305347      -1.07699894 
C      -1.45229555       0.20177806      -1.48375105 
C      -2.65155494      -0.12305156      -1.01860191 
O      -1.07523478       0.00314915       1.44563152 
H      -2.24519105       1.33312713       2.39209825 
H      -1.69504516       1.87552850       0.78488762 
H      -0.56305459       1.88067370       2.16357625 
H       1.31644387      -0.52227380       2.18249348 
H       0.85465073      -0.12592412      -2.69177876 
H       3.29462833      -0.85463953       0.73059118 
H       3.05272241      -0.63140595      -1.72262600 
H      -1.36451883       0.65541047      -2.46416861 
H      -3.54501056       0.08164435      -1.58478228 
H      -2.78172895      -0.60740350      -0.06680892 
