20
 energy: -28.383135066730 gnorm: 0.000421632741 xtb: 6.2.3 (830e466)
C        -1.84036253664636    0.42068292892649    0.14394280454614
C         0.46069030022926   -0.20580729518596   -0.00197755859030
C         0.91471108564997    1.10784730646497   -0.03649033607174
C         1.38695764301024   -1.24916013289009   -0.05509624768377
C         2.27381010957335    1.36442783243834   -0.12430877463764
C         2.73639605630776   -0.98032584297431   -0.14147731092422
C         3.18838551857764    0.33017886078376   -0.17711013492420
C        -3.17316386884085   -0.25385579886238    0.25242793875888
C        -4.25630253194072    0.13601894139079   -0.39114546391859
O        -0.84485629807052   -0.58115906319145    0.08192463811459
H        -1.68030565345330    1.05051126018171    1.03498787979561
H        -1.80448649376751    1.06129369469510   -0.74772977174790
H         0.22554535325737    1.93714458015155    0.00374967430683
H         1.01737586652214   -2.26220402513119   -0.02733462587369
H         2.61397768246865    2.38951948789784   -0.15070741582453
H         3.44158250524105   -1.79733561695501   -0.18186914184223
H         4.24486374422133    0.54058909596044   -0.24517248782570
H        -3.18706634111008   -1.10719762354085    0.91511152877496
H        -4.24677154920036    0.98072325053652   -1.06078928021264
H        -5.20008059202891   -0.36638184069581   -0.27004591422083
20
Properties=species:S:1:pos:R:3 6.2.3=T gnorm:=T 0.000571514397=T pbc="F F F" energy:=T xtb:=T 830e466=T -28.323117417385=T
C      -1.70389952       1.24717116      -1.14179512 
C       0.32045771       0.15012835      -0.52130323 
C       0.95867015       1.33323145      -0.16982658 
C       1.01043538      -1.05811290      -0.41554493 
C       2.26942754       1.29961638       0.27799379 
C       2.31486854      -1.07773053       0.03131468 
C       2.95251372       0.10278395       0.38050797 
C      -3.41670703      -1.21757303       0.79173093 
C      -4.41424789      -1.17437069       1.44637246 
O      -0.96537577       0.06166571      -0.97125089 
H      -1.85389698       1.76710456      -0.19007646 
H      -1.22007028       1.92144777      -1.85521304 
H       0.44920994       2.28166056      -0.23792968 
H       0.50204694      -1.96850377      -0.69300781 
H       2.75592814       2.22538681       0.54874610 
H       2.83849731      -2.01912726       0.10726218 
H       3.97369729       0.08712468       0.72967317 
H      -2.53980303      -1.24167249       0.21295144 
H      -2.67163624       0.93984106      -1.53552825 
H      -5.28921593      -1.14456180       2.02581327 
