20
 energy: -28.383137206150 gnorm: 0.000658733431 xtb: 6.2.3 (830e466)
C        -1.83970377989614    0.40534294044672   -0.28011623812595
C         0.45557580315686   -0.21887241666235   -0.05669585702537
C         0.92762735832676    1.06628836032654   -0.29855807718836
C         1.36856347719882   -1.24480810900758    0.19468550293192
C         2.29141514856590    1.31177478331816   -0.28922493657571
C         2.72266454206020   -0.98717752953753    0.20168817607697
C         3.19282440929812    0.29467377078118   -0.04126886573362
C        -3.18163886520425   -0.25901785939031   -0.24818716827680
C        -4.25169930887133    0.25771761118585    0.32375993191439
O        -0.85599404214516   -0.58172827331715   -0.04381068780799
H        -1.78399140374257    1.19923421237007    0.47725904220444
H        -1.68433402082441    0.85741683591682   -1.27406885484135
H         0.24904102742060    1.88193835591165   -0.49468626577463
H         0.98510976860799   -2.23535185447051    0.38202219979608
H         2.64550978738211    2.31458255571072   -0.47944142058336
H         3.41746855130427   -1.79038679459087    0.39777792359858
H         4.25299038456614    0.49582365870261   -0.03701141774799
H        -3.21423819306556   -1.21771810094708   -0.74510088010779
H        -5.20269617328569   -0.24480559989823    0.30495569458490
H        -4.22371447085443    1.21027345315302    0.82690219868249
20
Properties=species:S:1:pos:R:3 6.2.3=T gnorm:=T 0.000584294262=T pbc="F F F" energy:=T xtb:=T 830e466=T -28.333996530670=T
C      -2.68842160       1.93356178      -0.36105567 
C       0.47948094      -0.63941933       0.03298454 
C       0.83773555       0.65049256      -0.34054821 
C       1.47181290      -1.56841509       0.33317724 
C       2.17276659       1.00598135      -0.41049229 
C       2.80176312      -1.20363465       0.26029083 
C       3.15877630       0.08283512      -0.11046382 
C      -3.41490418       0.89478741      -0.09220763 
C      -4.12845775      -0.14978846       0.17612996 
O      -0.81880771      -1.03258098       0.11550711 
H      -2.23909636       2.52822104       0.41934528 
H      -2.52309508       2.26361847      -1.37511197 
H       0.06592280       1.37101943      -0.57612076 
H       1.17780675      -2.56560642       0.62030237 
H       2.44123282       2.01107165      -0.70158628 
H       3.56618585      -1.92938854       0.49559283 
H       4.19963559       0.36363660      -0.16517613 
H      -1.40366103      -0.28839396      -0.09001306 
H      -3.69360101      -1.13372469       0.25508361 
H      -5.19229450      -0.07907331       0.33524205 
