20
 energy: -28.383139174571 gnorm: 0.000563055300 xtb: 6.2.3 (830e466)
C        -1.83762811037496    0.43784072070575   -0.27857650407788
C         0.45502179657888   -0.20934703310724   -0.08634115295079
C         0.92884584800749    1.09640475639031   -0.14352733666974
C         1.36549034214443   -1.26057102215238    0.03976228646114
C         2.29215449624585    1.33734396359555   -0.07735774868154
C         2.71904504135458   -1.00728634090046    0.10486416222560
C         3.19106622848856    0.29538136510366    0.04588139478272
C        -3.17582927866302   -0.22809595506211   -0.37220347182985
C        -4.25387012101579    0.17805614223028    0.26947780967654
O        -0.85564688162090   -0.57078987894547   -0.14471022717947
H        -1.80778383017864    1.12562371623207    0.57747372885028
H        -1.65665503704208    1.01530075175018   -1.20028257599700
H         0.25195675878993    1.93150239727909   -0.23833676301095
H         0.97980394905009   -2.26696307557803    0.08458377705807
H         2.64802239105682    2.35643419010052   -0.12308813329716
H         3.41158704839564   -1.82997263867805    0.20301776180769
H         4.25079964905238    0.49353867644479    0.09694583282343
H        -3.19833710879481   -1.09100586088484   -1.02280712242466
H        -5.20113751759800   -0.32020383370224    0.15915962178232
H        -4.23610566387638    1.03231895917860    0.92695466065140
20
Properties=species:S:1:pos:R:3 6.2.3=T gnorm:=T 0.000361349146=T pbc="F F F" energy:=T xtb:=T -28.396834461268=T 830e466=T
C      -2.09979247       0.47126799      -1.35787222 
C       0.14976730      -0.35470157       0.32806299 
C       0.50561199       0.98648557       0.23418635 
C       1.13675837      -1.33583541       0.27714232 
C       1.83420086       1.33447908       0.06977644 
C       2.46057974      -0.97544553       0.11959719 
C       2.81422192       0.35952863       0.00750285 
C      -2.19090590      -0.03738933       0.05558536 
C      -3.26988196       0.09841786       0.81403600 
O      -1.13390974      -0.77504389       0.53726031 
H      -1.98294216       1.55389416      -1.38431472 
H      -1.25347488       0.01978718      -1.87143717 
H      -0.25363849       1.75062222       0.30862226 
H       0.84399705      -2.37046806       0.36656293 
H       2.10326781       2.37779589      -0.00367483 
H       3.22045170      -1.74186225       0.07913999 
H       3.84910342       0.63807090      -0.12137247 
H      -3.01237755       0.22142865      -1.89410593 
H      -4.15249103       0.58185059       0.43958592 
H      -3.29774597      -0.28737267       1.81660644 
