20
 energy: -28.385040066324 gnorm: 0.000500094444 xtb: 6.2.3 (830e466)
C        -1.90735079237703    0.01369547482408   -1.49569088960721
C         0.23533699602374   -0.32151879095186   -0.49222562008430
C         0.37015030780453    1.00162787686822   -0.08794483459068
C         1.26894194223845   -1.22264380617657   -0.23217121217403
C         1.52519626347147    1.40890260014440    0.55936584556535
C         2.41273097788370   -0.80538853023971    0.41539677753617
C         2.54868854103906    0.51565251459502    0.81324655433738
C        -2.77123887378221    0.45684903317588   -0.34748367618573
C        -2.69376623520538   -0.01742146047927    0.88089545796347
O        -0.84282855111857   -0.83934108819566   -1.14733084219735
H        -1.53603005708942    0.89240550374432   -2.04384694635514
H        -2.51733834052746   -0.57641575713032   -2.19078384994098
H        -0.41848091808752    1.71748028474091   -0.25826668291826
H         1.14667784245686   -2.24610337223406   -0.55063730145993
H         1.61818257837616    2.43976622503296    0.86849457129863
H         3.20421442200455   -1.51389342117181    0.61020327256093
H         3.44407551208551    0.84311800738138    1.31921905929500
H        -3.49994815907398    1.21020225627177   -0.61570001121635
H        -3.34354504098186    0.32905214356932    1.66543240023530
H        -1.97277841514053   -0.77104569376934    1.15081792793662
20
Properties=species:S:1:pos:R:3 6.2.3=T gnorm:=T pbc="F F F" energy:=T 0.000976425553=T -28.383530630236=T xtb:=T 830e466=T
C      -1.98918879       0.35376229      -1.46525357 
C      -0.00808937       0.07216593       0.08609054 
C       0.55224236       1.34072359      -0.03450894 
C       0.81650729      -0.98890760       0.45276298 
C       1.90025111       1.54046541       0.20261884 
C       2.16480742      -0.78934975       0.68258866 
C       2.71192515       0.47656004       0.55655124 
C      -1.44206410      -0.17395636      -0.15911916 
C      -2.19051065      -0.84958140       0.70391600 
O      -3.37564404       0.20764691      -1.62644389 
H      -1.69740003       1.40833537      -1.58532679 
H      -1.53477780      -0.20708923      -2.28901695 
H      -0.07031963       2.18481817      -0.29282832 
H       0.39192463      -1.97831373       0.54054944 
H       2.31883417       2.53191337       0.10959225 
H       2.79245208      -1.62485694       0.95722981 
H       3.76561216       0.63328239       0.73390609 
H      -3.81764011       0.65424436      -0.89624056 
H      -3.22816400      -1.06397434       0.50983917 
H      -1.78986782      -1.21290846       1.63408317 
