  48
        -65.77519945
 Si         1.9883468362       -2.4130921473        0.2153522749
 C          3.6954323480       -1.7810112222        0.7595984593
 H          4.5028972541       -2.3806888480        0.3525648747
 H          3.7983993368       -1.7829766834        1.8413282685
 H          3.8342488162       -0.7567121295        0.4235746840
 C          1.4620099002       -3.9437362741        1.2301371247
 H          2.0318617038       -4.8192794561        0.9364218641
 H          0.4104858820       -4.1735838058        1.0804269981
 H          1.6161811043       -3.8021741901        2.2962970740
 C          1.8913214866       -2.7947611219       -1.6438199636
 O          0.8668081189       -1.2099666950        0.3463277010
 H          2.5889412956       -3.5818483484       -1.9086374727
 H          2.1397764983       -1.9199769597       -2.2364502809
 H          0.8996333276       -3.1239308656       -1.9395746226
 C          0.6474782005       -0.2546749130        1.2745123289
 C          0.6784456057       -0.4595252929        2.5828987617
 H          0.8959695910       -1.4314949275        2.9839225705
 H          0.4998658403        0.3388024123        3.2774007313
 C          0.3815532345        1.0711602104        0.6521462933
 C          1.5057631681        1.6297440092       -0.1716269180
 O          1.0132972125        2.3482091387       -1.1920710628
 C         -0.6186220635        2.0456304654        1.2399288722
 C         -1.9443544197        0.4510838523       -0.4452620875
 C         -3.0635859363        0.3474498699        0.2620563151
 C         -1.6298132486       -0.4519786094       -1.6063743599
 O          2.6790867669        1.4447731513       -0.0108798009
 C         -4.1276292784       -0.6689585003       -0.0079758556
 C         -2.8695273193       -1.1948666428       -2.0929768773
 H         -0.8668462964       -1.1652754987       -1.2811467426
 H         -1.1935655754        0.1297512624       -2.4222975854
 C         -3.6097327320       -1.7916138632       -0.9019968461
 H         -4.9787758946       -0.1729324737       -0.4876716993
 H         -4.4886458264       -1.0749472629        0.9404664960
 H         -2.5786333852       -1.9790346891       -2.7941166389
 H         -3.5318795009       -0.5020909363       -2.6172900524
 H         -4.4403883566       -2.4145217304       -1.2388694253
 H         -2.9217724482       -2.4198736025       -0.3328859882
 C         -0.3600165246        3.5349469873        1.0905874514
 C         -0.8913110166        1.4280788668       -0.0982471714
 H         -1.1410818254        1.7023848600        2.1203580906
 C         -0.4019197872        2.4957043921       -1.0855748134
 C         -0.6988196271        3.8225281957       -0.3806808339
 H         -1.7580506579        4.0545936651       -0.4922995119
 H         -0.1082426807        4.6343220006       -0.8015753148
 H          0.6828246541        3.7774041062        1.3038651256
 H         -0.9874134159        4.1123788615        1.7681316146
 H         -0.8199507767        2.4316860625       -2.0908209884
 H         -3.2520559496        1.0262972560        1.0827345854
48

Si                    2.21843000          -2.40238000           0.50484000         
C                     3.98172000          -2.42128000           1.11578000         
H                     4.33601000          -3.46982000           1.19062000         
H                     4.03139000          -1.94110000           2.11444000         
H                     4.62470000          -1.86341000           0.40430000         
C                     1.21442000          -3.41976000           1.72012000         
H                     1.66548000          -4.43062000           1.79089000         
H                     0.16585000          -3.54225000           1.38781000         
H                     1.24402000          -2.94000000           2.71961000         
C                     2.14941000          -3.21049000          -1.17521000         
O                     1.75063000          -0.76341000           0.33750000         
H                     2.50789000          -4.25729000          -1.09928000         
H                     2.79344000          -2.64754000          -1.88174000         
H                     1.10248000          -3.20193000          -1.54285000         
C                     0.66840000          -0.08365000           0.81215000         
C                    -0.64763000          -0.85217000           1.11421000         
H                    -0.56027000          -1.69194000           0.40223000         
H                    -0.66343000          -1.30602000           2.12650000         
C                     0.68710000           1.27995000           0.71472000         
C                     1.57352000           1.89330000          -0.31888000         
O                     0.91182000           2.68438000          -1.23433000         
C                    -0.53935000           2.09857000           1.01333000         
C                    -1.91546000           0.74156000          -0.50482000         
C                    -2.05521000          -0.22593000           0.69898000         
C                    -2.35819000           0.36815000          -1.90254000         
O                     2.72536000           1.53937000          -0.51657000         
C                    -3.10469000          -1.33069000           0.45846000         
C                    -3.37640000          -0.77738000          -1.94308000         
H                    -1.43855000           0.06571000          -2.44939000         
H                    -2.80414000           1.23861000          -2.43028000         
C                    -3.03168000          -1.90438000          -0.96372000         
H                    -4.12064000          -0.89111000           0.57933000         
H                    -3.00839000          -2.12429000           1.23111000         
H                    -3.45657000          -1.15855000          -2.98372000         
H                    -4.37568000          -0.37638000          -1.66125000         
H                    -3.79896000          -2.70241000          -1.06158000         
H                    -2.03920000          -2.34707000          -1.19115000         
C                    -0.36446000           3.64552000           1.01220000         
C                    -1.14674000           1.83582000          -0.29166000         
H                    -0.98382000           1.77212000           1.97389000         
C                    -0.49894000           2.85735000          -1.22564000         
C                    -0.77961000           4.09374000          -0.40522000         
H                    -1.88466000           4.24966000          -0.42693000         
H                    -0.29344000           5.03333000          -0.74334000         
H                     0.69222000           3.89064000           1.25685000         
H                    -1.02305000           4.16561000           1.74099000         
H                    -0.89852000           2.85854000          -2.26113000         
H                    -2.44860000           0.33261000           1.57316000         
