  48
        -65.78346826
 Si        -3.0163910214        0.7717391552       -0.3644921599
 C         -2.6744739020        1.0753299498       -2.2097342341
 H         -1.9672467288        1.8885852810       -2.3525543525
 H         -3.5869479925        1.3393335072       -2.7347993640
 H         -2.2637856937        0.1883004169       -2.6794517388
 C         -4.0524980913       -0.7775065928        0.0087093858
 H         -4.1037132368       -0.9677719872        1.0778490270
 H         -3.6223041306       -1.6511036611       -0.4674505571
 H         -5.0686628373       -0.6658430203       -0.3552913569
 C         -3.8766606380        2.3117374909        0.3650214772
 O         -1.6157645645        0.8199346326        0.5207179784
 H         -4.0959222644        2.1906504953        1.4213617549
 H         -4.8156627964        2.5005536144       -0.1435365997
 H         -3.2636179724        3.2013419041        0.2590412260
 C         -0.6555192188        0.0462046392        1.0104506626
 C          0.1618947621        0.7062028661        2.0952754280
 H         -0.3966345348        1.5685237440        2.4614007693
 H          0.3184866079        0.0375629765        2.9394722455
 C         -0.2438443622       -1.1546033358        0.5449239372
 C         -0.3951632565       -1.5524069993       -0.8660193553
 O          0.7625472774       -1.7748294133       -1.5347952014
 C          0.9911076409       -1.7473314925        1.1824917509
 C          2.2102468241        0.3539420951        0.4886231815
 C          1.5250803306        1.2275733834        1.5315889626
 C          3.2558115831        1.0240307546       -0.3640698303
 O         -1.4273844413       -1.6012202436       -1.4878911246
 C          1.2107734456        2.6112229094        0.9248609788
 C          2.8115706306        2.3607585825       -0.9445850872
 H          3.5697010275        0.3522840203       -1.1623786044
 H          4.1295274961        1.2022675275        0.2743866473
 C          2.3768333980        3.2628370687        0.1981651775
 H          0.8711007797        3.2688892705        1.7282789761
 H          0.3831472845        2.4910858314        0.2219378731
 H          1.9768460053        2.2053040090       -1.6309210267
 H          3.6338158773        2.8100244056       -1.5049642417
 H          3.2120655234        3.4150639535        0.8863227633
 H          2.0693898917        4.2399768924       -0.1794526310
 C          1.2144705404       -3.2321852563        0.8536056319
 C          1.9601734905       -0.9497439735        0.3496753963
 H          1.0468480702       -1.5742981232        2.2508603078
 C          2.0430979958       -1.8266297756       -0.8719473822
 C          2.2181334827       -3.2320848667       -0.3068466460
 H          3.2411129991       -3.3561382064        0.0487105507
 H          2.0041137172       -3.9948612376       -1.0530143449
 H          0.2753992255       -3.7015322451        0.5573565991
 H          1.6009219182       -3.7711673093        1.7175285159
 H          2.7678676844       -1.5561577012       -1.6395477596
 H          2.2050014623        1.3641047957        2.3812798000
48

Si                   -2.89548000           0.49858000          -1.07539000         
C                    -3.58604000           0.30381000          -2.79991000         
H                    -3.14767000           1.07880000          -3.46230000         
H                    -4.68868000           0.42109000          -2.77595000         
H                    -3.32816000          -0.70167000          -3.19092000         
C                    -3.66300000          -0.83573000          -0.00713000         
H                    -3.30792000          -0.77653000           1.03815000         
H                    -3.39840000          -1.82968000          -0.42223000         
H                    -4.76561000          -0.71672000          -0.01705000         
C                    -3.34939000           2.22503000          -0.50160000         
O                    -1.63457000           0.87209000           1.77942000         
H                    -2.96757000           2.43652000           0.51362000         
H                    -4.45269000           2.33473000          -0.49938000         
H                    -2.91177000           2.96458000          -1.20374000         
C                    -0.59723000           0.23657000           1.79985000         
C                     0.55456000           0.65552000           2.73044000         
H                     0.20697000           1.46093000           3.41422000         
H                     0.85368000          -0.15780000           3.41626000         
C                    -0.21067000          -0.73399000           0.75409000         
C                    -0.38786000          -0.56756000          -0.61246000         
O                     0.55525000          -1.19242000          -1.42360000         
C                     0.89042000          -1.67955000           1.17684000         
C                     2.40452000           0.27748000           0.75088000         
C                     1.80296000           1.17831000           1.89723000         
C                     3.42266000           0.96739000          -0.13992000         
O                    -1.20292000           0.34709000          -1.19650000         
C                     1.32028000           2.50621000           1.23591000         
C                     2.83671000           2.24172000          -0.74018000         
H                     3.79927000           0.32285000          -0.95510000         
H                     4.30447000           1.23275000           0.48269000         
C                     2.39070000           3.18314000           0.37940000         
H                     0.99024000           3.22271000           2.01970000         
H                     0.45007000           2.30683000           0.57140000         
H                     1.97208000           1.98470000          -1.39308000         
H                     3.60520000           2.74770000          -1.36265000         
H                     3.25939000           3.46536000           1.01261000         
H                     1.96798000           4.10877000          -0.06876000         
C                     0.77815000          -3.08599000           0.53056000         
C                     1.95729000          -0.98981000           0.45344000         
H                     1.08771000          -1.82017000           2.25307000         
C                     1.83987000          -1.57802000          -0.94031000         
C                     1.79038000          -3.05112000          -0.61083000         
H                     2.79648000          -3.32645000          -0.21595000         
H                     1.54251000          -3.73530000          -1.45004000         
H                    -0.25706000          -3.23011000           0.14750000         
H                     1.01746000          -3.92976000           1.21372000         
H                     2.63739000          -1.32510000          -1.66424000         
H                     2.62272000           1.43022000           2.60441000         
