  48
        -65.77790635
 Si         2.4818352123       -2.2291004883        0.3623624856
 C          3.6288184840       -1.8577323136       -1.1129866584
 H          3.0562844389       -1.7635657140       -2.0316443077
 H          4.3596464537       -2.6464867403       -1.2579987996
 H          4.1742461119       -0.9284895879       -0.9669489134
 C          3.3865883152       -2.1543257836        2.0275952046
 H          2.6851640618       -2.2217268292        2.8529396539
 H          3.9402544289       -1.2278049720        2.1427974083
 H          4.0905647286       -2.9739984965        2.1182574515
 C          1.5049248169       -3.8411483449        0.1188362923
 O         -0.7274498094       -0.7956863950        2.3396785515
 H          0.7918488145       -3.9826246553        0.9270230217
 H          2.1557951263       -4.7093120746        0.0937984501
 H          0.9452681412       -3.8164226473       -0.8120418966
 C         -1.0732180288        0.0744656904        1.5881664264
 C         -2.2566798454        0.9941777385        1.7814135493
 H         -3.0610275969        0.4722767137        2.2994540642
 H         -1.9303653746        1.8089743552        2.4323181938
 C         -0.3996910200        0.4782225619        0.2962405430
 C          0.4432930753       -0.6225235610       -0.2906339250
 O          1.4114724028       -0.9452656908        0.5399244737
 C          0.4161861036        1.8101914636        0.5106179455
 C         -1.4552376466        1.2832260166       -0.5359004054
 C         -2.6707829542        1.5135802246        0.3991116635
 C         -1.8759559788        0.7998637352       -1.9155705973
 O          0.2836782875       -1.1441634873       -1.3635121436
 C         -3.9124609500        0.7776996288       -0.1151877458
 C         -2.6802157354       -0.5044491806       -1.8738031172
 H         -0.9882201686        0.6562936644       -2.5309120050
 H         -2.4682178462        1.5983679293       -2.3691361046
 C         -3.5267371670       -0.6128714943       -0.6026278072
 H         -4.3658434091        1.3359192967       -0.9360397956
 H         -4.6529579365        0.7160992359        0.6850181740
 H         -1.9935157201       -1.3476480158       -1.9289777466
 H         -3.3245254611       -0.5415094793       -2.7542678253
 H         -4.4196798288       -1.2086645650       -0.7977258327
 H         -2.9595450949       -1.1202222197        0.1809683985
 C          1.8298880432        2.0914839115        0.0002410472
 C         -0.4541106563        2.4063670836       -0.5568556279
 H          0.2767183185        2.2045555884        1.5179420077
 C          0.2079382168        3.2227537848       -1.3581619931
 C          1.6212170062        3.3790571686       -0.8360529916
 H          1.7180088001        4.2710990467       -0.2104323768
 H          2.3397645124        3.4597712283       -1.6508648211
 H          2.1706996536        1.2883038013       -0.6535129861
 H          2.5568980239        2.2186368043        0.8000711517
 H         -0.1326521675        3.6987392435       -2.2593609696
 H         -2.8924378552        2.5840660161        0.4463668572
48

Si                    2.46800399          -2.38920222           0.32880854         
C                     3.40617214          -1.70291577          -1.13910826         
H                     2.77699494          -1.77651465          -2.05026496         
H                     4.33242714          -2.29439528          -1.28721271         
H                     3.68190472          -0.64470823          -0.95437192         
C                     3.54178360          -2.26127011           1.84859137         
H                     3.00443015          -2.69455750           2.71664330         
H                     3.76821193          -1.19378928           2.04851698         
H                     4.48701174          -2.81658142           1.68152238         
C                     2.08180177          -4.18433502          -0.00538416         
O                    -1.23059655          -1.38539139           2.19947037         
H                     1.54664107          -4.61307632           0.86658003         
H                     3.02370676          -4.74408454          -0.17479399         
H                     1.43712216          -4.26011034          -0.90548690         
C                    -1.55286183          -0.48907719           1.43526235         
C                    -2.36326925           0.69120387           1.85611103         
H                    -3.28499231           0.46143836           2.43156233         
H                    -1.68727852           1.28413649           2.51259302         
C                    -0.76738607          -0.07554038           0.27871832         
C                     0.48584833          -0.52270106          -0.02134222         
O                     0.99207527          -1.59409984           0.63376155         
C                     0.13272778           3.00722333           0.39060014         
C                    -1.39545274           1.13061821          -0.38827656         
C                    -2.60652288           1.49574605           0.55917699         
C                    -1.90970003           0.81767850          -1.82422677         
O                     1.26906616           0.22097520          -0.87779921         
C                    -3.99733336           1.11747830          -0.05603262         
C                    -2.97229592          -0.30446086          -1.86811764         
H                    -1.12777760           0.52530436          -2.55095966         
H                    -2.36199637           1.76201950          -2.20099239         
C                    -3.96964660          -0.26762993          -0.69661244         
H                    -4.27693862           1.84793867          -0.84653544         
H                    -4.78459517           1.17715057           0.72651880         
H                    -2.50447652          -1.31333269          -1.87559809         
H                    -3.50582334          -0.18183754          -2.83602627         
H                    -4.96849488          -0.60254427          -1.04891656         
H                    -3.66449229          -0.99314638           0.08324069         
C                     1.60122609           3.27284129           0.30469133         
C                    -0.19203357           2.02339849          -0.44047596         
H                    -0.50754628           3.37343592           1.18106901         
C                     0.95638088           1.52890280          -1.27741786         
C                     2.00846325           2.60349675          -1.00590678         
H                     1.79475170           3.39117628          -1.76628381         
H                     3.07494182           2.32723342          -1.14288832         
H                     2.06429604           2.75506363           1.17226260         
H                     1.87862521           4.34881597           0.31597801         
H                     0.77539645           1.51015893          -2.37250092         
H                    -2.70302709           2.58031656           0.78183890         
