  48
        -65.81005061
 Si         3.3424492384        0.9578489369       -0.1456189555
 C          4.0806185166        2.5511711064       -0.9013467367
 H          5.1636849040        2.4975111136       -0.9353431352
 H          3.8147072249        3.4258659140       -0.3163542398
 H          3.7296515812        2.7212683359       -1.9147343090
 C          4.0386179204        0.7996144315        1.6162850386
 H          5.1220078321        0.8592699259        1.5993806959
 H          3.7602110013       -0.1382460826        2.0813922077
 H          3.6748682571        1.6083573075        2.2443040796
 C          3.6831947802       -0.4529757462       -1.3800452716
 O          2.1111018336       -1.3039794716        0.9188100975
 H          4.6586544150       -0.3348773952       -1.8412646505
 H          2.9412543057       -0.4569350614       -2.1745708977
 H          3.6562633174       -1.4232045115       -0.8980294786
 C          0.9116079899       -1.3107880433        0.7034253947
 C         -0.0371077011       -2.4337810686        1.0980983031
 H          0.0536703026       -3.2393966483        0.3672171689
 H          0.2230104148       -2.8404040697        2.0746868953
 C          0.1275110038       -0.2889597995        0.0745705062
 C          0.5321446850        0.9731697552       -0.2190367912
 O          1.7425328961        1.4474217864       -0.1109120381
 C         -3.2197602646        0.7431589434        0.8264544601
 C         -1.3120865393       -0.7466234360       -0.0679983628
 C         -1.4288257598       -1.7932972947        1.0603651290
 C         -1.5101358027       -1.3942032063       -1.4545311393
 O         -0.3050373813        1.9390142842       -0.6452006202
 C         -2.5862745912       -2.7796417492        0.9113023516
 C         -2.7910726115       -2.2162958597       -1.5099803680
 H         -0.6566674687       -2.0424531496       -1.6636006540
 H         -1.5237671677       -0.6160846872       -2.2199159190
 C         -2.7119531955       -3.3509996013       -0.4963974237
 H         -3.5182041853       -2.2660538580        1.1562629224
 H         -2.4556157423       -3.5885911561        1.6337683155
 H         -2.9261348008       -2.6185512073       -2.5160011776
 H         -3.6470122171       -1.5773117575       -1.2810000580
 H         -3.6062782810       -3.9744169403       -0.5551568713
 H         -1.8528640971       -3.9838591927       -0.7276021580
 C         -3.6601158247        2.1705693788        0.6945303235
 C         -2.1581898860        0.4703411164        0.0830106597
 H         -3.7516701187        0.0511004672        1.4544703134
 C         -1.7072732465        1.6906652154       -0.6850909502
 C         -2.4797881426        2.8437452245       -0.0229732279
 H         -2.7948650354        3.5953557886       -0.7426392260
 H         -1.8156000895        3.3176731488        0.6997759358
 H         -3.8726770931        2.6237690126        1.6633875403
 H         -4.5721376841        2.2295347250        0.0941613868
 H         -1.9767943774        1.5941256312       -1.7478034436
 H         -1.5667612688       -1.2458272305        2.0000633670
48

Si                    3.70445000           0.16093000           0.08790000         
C                     3.80796000           1.83241000          -0.73886000         
H                     4.87796000           2.11446000          -0.81769000         
H                     3.30310000           2.60181000          -0.12058000         
H                     3.39351000           1.78107000          -1.76625000         
C                     4.54185000           0.34136000           1.74648000         
H                     5.56136000           0.75501000           1.60348000         
H                     4.61231000          -0.65234000           2.23457000         
H                     3.95022000           1.02733000           2.38657000         
C                     4.73357000          -0.99236000          -0.95921000         
O                     2.21558000          -0.64655000           0.36211000         
H                     5.75206000          -0.57168000          -1.08649000         
H                     4.25522000          -1.11154000          -1.95310000         
H                     4.80139000          -1.98154000          -0.46164000         
C                     0.85612000          -0.70150000           0.27090000         
C                     0.17884000          -1.96431000           0.73679000         
H                     0.32122000          -2.73068000          -0.05327000         
H                     0.56771000          -2.34986000           1.70415000         
C                    -0.06445000           0.17963000          -0.20612000         
C                     0.04078000           1.55091000          -0.78455000         
O                     1.11422000           2.07489000          -0.96631000         
C                    -3.35410000           0.75588000           1.03169000         
C                    -1.42718000          -0.45438000          -0.17961000         
C                    -1.26557000          -1.50101000           0.92467000         
C                    -1.68565000          -1.13752000          -1.55896000         
O                    -1.09152000           2.25288000          -1.10052000         
C                    -2.35519000          -2.59391000           0.93756000         
C                    -2.86678000          -2.11316000          -1.48392000         
H                    -0.79886000          -1.73277000          -1.87130000         
H                    -1.84772000          -0.38184000          -2.35675000         
C                    -2.56188000          -3.21209000          -0.45088000         
H                    -3.32111000          -2.13891000           1.23498000         
H                    -2.10998000          -3.37561000           1.68777000         
H                    -3.01762000          -2.58266000          -2.47968000         
H                    -3.79708000          -1.56943000          -1.20961000         
H                    -3.40558000          -3.93388000          -0.41034000         
H                    -1.65259000          -3.77112000          -0.75927000         
C                    -4.10177000           2.03727000           0.86806000         
C                    -2.42810000           0.64460000           0.07836000         
H                    -3.58257000           0.01073000           1.77777000         
C                    -2.39287000           1.85542000          -0.79866000         
C                    -3.09252000           2.87476000           0.08920000         
H                    -3.49092000           3.77601000          -0.42251000         
H                    -2.34050000           3.21677000           0.84026000         
H                    -4.35960000           2.53916000           1.82489000         
H                    -5.01585000           1.82753000           0.27071000         
H                    -2.97015000           1.65161000          -1.72631000         
H                    -1.26884000          -0.96901000           1.90654000         
