12
-17.322721030115645
C        2.114226       1.773024      -3.232807
C        0.101099       0.967548      -0.273343
C        1.009991      -0.080297      -0.853989
O        0.980491       2.173471      -3.238874
O        0.460216       2.293138      -0.488927
O        1.908955       0.083901      -1.635924
H        0.544432       2.457173      -1.445317
H        2.889570       2.200870      -2.581835
H        2.469132       1.005403      -3.933649
H        0.757505      -1.097652      -0.493860
H       -0.907282       0.742257      -0.669706
H        0.060576       0.820775       0.812421
12
-17.32278886388849
C        2.114252       1.773028      -3.232803
C        0.101108       0.967550      -0.273340
C        1.009990      -0.080302      -0.853976
O        0.980465       2.173461      -3.238874
O        0.460210       2.293133      -0.488939
O        1.908895       0.083877      -1.635955
H        0.544415       2.457163      -1.445317
H        2.889580       2.200887      -2.581832
H        2.469178       1.005412      -3.933633
H        0.757485      -1.097650      -0.493863
H       -0.907267       0.742252      -0.669678
H        0.060599       0.820797       0.812400
