11
 energy: -17.580788007854 gnorm: 0.000388336382 xtb: 6.2.3 (830e466)
C         6.45299043892974    2.48726530551786    1.81536800442374
C         6.99396258036845    1.16905289985065    1.23705631206631
C         7.56332179990011    3.50959272706704    1.81183521575792
O         5.94604717951430    2.31481845148601    3.10828207114151
O         7.98748653500917    4.01026132360551    2.81725384014910
H         6.54367439658208    2.78149015325833    3.71539436494655
H         5.64189240746915    2.85368798906714    1.16735593298295
H         7.97606882280430    3.74323225259491    0.81581226395834
H         7.33787820594451    1.31353208504178    0.21705174414325
H         7.81647564980976    0.80645270605380    1.84903200856419
H         6.20119198366838    0.42710410645697    1.24866824186614
11
Properties=species:S:1:pos:R:3 energy:=T -17.503388225679=T gnorm:=T 0.000576214464=T xtb:=T 6.2.3=T (830e466)=T pbc="F F F"
C        6.71708735       2.01494288       1.61464476
C        7.09806882       1.01358083       0.57703062
C        7.55263215       2.91181340       2.10608953
O        5.95736335       3.83993244       3.51764770
O        7.30358399       3.86250614       3.04889994
H        5.98717630       4.50191322       4.22089155
H        5.69826392       1.99053911       1.96977234
H        8.58788126       3.01701222       1.81320819
H        6.48451142       1.14283391      -0.31378384
H        8.14382224       1.11777007       0.30001471
H        6.93059919       0.00364579       0.94869451
