11
 energy: -17.580788669084 gnorm: 0.000529878830 xtb: 6.2.3 (830e466)
C         6.58184829695654    2.14153981502971    2.14092856924517
C         6.92264971415006    1.61027801538036    0.73830734972639
C         7.80272354693885    2.82254736839292    2.70865780585829
O         5.49478169026647    3.02259266272562    2.11026696012717
O         7.82183316862058    3.98943737296774    2.98954000939816
H         5.83866519595734    3.90983894992399    2.30501475447390
H         6.32404820409635    1.29101527257188    2.79050271069620
H         8.68772708584784    2.17326574922622    2.82007521831498
H         6.03803903317312    1.14415466105974    0.31455196873532
H         7.22404876349281    2.43207567545061    0.09306330267626
H         7.72463530050005    0.87964445727119    0.79239135074817
11
Properties=species:S:1:pos:R:3 energy:=T -17.622591020733=T gnorm:=T 0.000454792629=T xtb:=T 6.2.3=T (830e466)=T pbc="F F F"
C        7.45164337       1.85657862       2.18275197
C        7.01055168       1.44321062       0.78639948
C        6.84075880       3.14558634       2.67342299
O        6.00817540       3.71376749       1.79408100
O        7.06513790       3.63611663       3.74876705
H        5.64694748       4.53545808       2.16172147
H        7.19597815       1.08550697       2.91374724
H        8.53631982       1.98303466       2.22465172
H        5.93365426       1.30333390       0.75068191
H        7.27911573       2.20429078       0.05895224
H        7.49271740       0.50950592       0.50812292
