10
 energy: -13.531709934079 gnorm: 0.000394186534 xtb: 6.2.3 (830e466)
C        -2.79536724871882   -0.75673655790439   -0.10262214394136
C        -1.67396028350570    1.49851306343848    0.42026530681853
C        -1.54076061529879    0.00200440852330    0.26166844786626
O        -0.48564289280478   -0.55890135649301    0.41804278031112
H        -2.62375761791754   -1.29241493665976   -1.03480471859268
H        -3.66042228336041   -0.11094274514872   -0.20758985306017
H        -2.98859257716795   -1.50493930065104    0.66433444249848
H        -1.35771458478997    1.77484727411281    1.42475207787778
H        -2.68526140926390    1.85020150876642    0.24713731622134
H        -0.99292048717214    1.98738864201591   -0.27439365599930
10
Properties=species:S:1:pos:R:3 energy:=T -13.460303382412=T gnorm:=T 0.000207098674=T xtb:=T 6.2.3=T (830e466)=T pbc="F F F"
C       -2.83778957       0.06817046       0.02218237
C       -2.39788476       1.48235752       0.36634586
C       -0.10700506      -1.51255765      -0.38464643
O        0.23487991      -1.79684491       0.65405828
H       -1.99780446      -0.50456302      -0.37827272
H       -3.62516912       0.08189552      -0.72770225
H       -3.21244487      -0.44458763       0.90572803
H       -1.60865993       1.46753230       1.11485188
H       -3.23211324       2.05724853       0.76216769
H       -2.02040889       1.99036890      -0.51792273
