13
 energy: -23.812286066430 gnorm: 0.000512535546 xtb: 6.2.3 (830e466)
C        10.66980721327256    1.95959419738142    1.90666203166490
C         8.84740642227019    2.77186301436072    3.12075793546542
C        10.25322871734779    0.65282968682890    1.29775470460624
C         9.04964571188561    0.37946301742847    0.83468205240290
O         9.59805488592060    2.88977728572653    2.03522389929780
O         7.85098276707475    3.66185662619762    3.06595251055844
O         9.02018723523544    2.01229873875958    4.03008081674164
H         7.30958389601321    3.59771618556462    3.86599976223346
H        11.11098593158556    1.77549211408726    2.89429746731439
H        11.40708574584130    2.45699802184929    1.26930669187092
H        11.04754815633646   -0.07938870424474    1.26917775214924
H         8.25445042228696    1.10527716781604    0.85539381875335
H         8.81083289492952   -0.58159735175573    0.41492055694129
13
Properties=species:S:1:pos:R:3 energy:=T -23.807985927917=T gnorm:=T 0.000781825090=T xtb:=T 6.2.3=T (830e466)=T pbc="F F F"
C       10.82556175       1.99392856       1.96004704
C        8.57944525       2.57116555       2.22120639
C       10.32352339       0.63824667       1.56276003
C        9.04519988       0.33991615       1.74909094
O        9.86137646       2.66719556       2.75386321
O        7.72034806       3.32959133       2.94749354
O        8.12633613       1.23176258       2.21480334
H        7.77675922       3.05915421       3.87450850
H       11.71341027       1.91559524       2.59160629
H       11.07694818       2.60086766       1.07513863
H       11.02414759      -0.07606068       1.17203557
H        8.55748498       2.95370569       1.18291369
H        8.59925884      -0.62288851       1.55474283
