13
 energy: -23.800191006075 gnorm: 0.000544758890 xtb: 6.2.3 (830e466)
C        10.35183134544264    2.09185818045917    1.57805591568428
C         9.63177428873382    2.99225038923815    3.71275679783732
C         9.70986859338154    0.73296511143767    1.61242881758103
C         8.65228368912390    0.39423095593618    0.89586099339401
O        10.61780303552035    2.62007851108442    2.87724599482451
O         8.37409188621856    2.73689618890341    3.34050097170525
O         9.89211150224111    3.53242341309956    4.73899057071098
H         8.29881512949109    2.16834361884876    2.55795811450173
H        11.34644265524611    2.01497065678410    1.12680896714269
H         9.75705995948675    2.80254148277697    0.98833092481940
H        10.18636684059193    0.02773202603134    2.27943888175688
H         8.23815510559708   -0.59786317038794    0.93171389628944
H         8.17309596892547    1.08599263578804    0.22030915375235
13
Properties=species:S:1:pos:R:3 energy:=T -23.706491921636=T gnorm:=T 0.000594037653=T xtb:=T 6.2.3=T (830e466)=T pbc="F F F"
C       10.38335580       2.11229162       1.73517186
C       10.23888327       2.56641496       3.16538735
C        9.90893690       0.68774335       1.64849020
C        8.84529641       0.30491789       0.96903609
O        9.01363022       2.97706314       3.56749926
O        8.00569613       2.99554213       2.57353687
O       11.09922889       2.56825075       3.99603868
H        7.21764040       3.21376990       3.09314010
H       11.44176194       2.16983486       1.47704395
H        9.79167886       2.75009185       1.07872477
H       10.50278704      -0.02386961       2.20597138
H        8.53879657      -0.72629324       0.93268992
H        8.24200757       1.00666240       0.41766956
