13
 energy: -23.800184364073 gnorm: 0.000466783643 xtb: 6.2.3 (830e466)
C        10.46660643079965    2.09207545188815    2.00081223050922
C         9.05517801031170    2.64974771882156    3.89306593901450
C         9.81525644019850    0.82188672562974    1.52911174949561
C         9.12761934779015    0.71476167127157    0.40554508835020
O        10.26514901129118    2.34625291211419    3.39019833149040
O         8.00662290696139    2.58182820650138    3.06790185539757
O         8.94640026461238    2.96811302734712    5.03285776803078
H         8.20139007497557    2.17134401582695    2.21073552623313
H        11.55409965867533    1.99807545398942    1.91506831019374
H        10.14520504797139    2.95451068674895    1.40115097501196
H         9.95891102982603   -0.02681514748172    2.18399204482095
H         8.98463761831952    1.55220766503961   -0.25974840480786
H         8.70252415826714   -0.22168838769695    0.08960858626004
13
Properties=species:S:1:pos:R:3 energy:=T -23.737978262280=T gnorm:=T 0.000683603112=T xtb:=T 6.2.3=T (830e466)=T pbc="F F F"
C       10.57727019       2.83970429       1.67329381
C        9.24475710       2.43612276       3.65097113
C        8.90660654      -0.36598729       1.80583210
C        8.77444134      -0.17328117       0.63377278
O       10.44313338       2.58150602       3.06203691
O        8.16065816       2.45391721       2.86763866
O        9.17016019       2.30428764       4.83047729
H        8.34781820       2.34988515       1.92469121
H       11.63545947       3.04648286       1.52545660
H        9.99667470       3.71583541       1.36858380
H        9.02010936      -0.52280473       2.83874911
H       10.29803925       1.96300760       1.07854804
H        8.65447212      -0.02637575      -0.39975145
