7
 energy: -12.683741919354 gnorm: 0.000915830221 xtb: 6.2.3 (830e466)
C        12.43151025423083   -0.95424574469683    2.09230044817761
O        11.51478259339106   -0.21911664772256    1.88460189885318
H        12.54982752581682   -1.50312137390155    3.03984399193156
H        13.22621605448159   -1.13648620101669    1.35134775887402
C        11.74469075553503    2.14601301609161    3.39770619192122
N        12.69312678929360    2.17863446939616    4.02616313071906
H        10.86764602725107    2.10223248184970    2.80813657952371
7
Properties=species:S:1:pos:R:3 energy:=T -12.737114647706=T gnorm:=T 0.000442122728=T xtb:=T 6.2.3=T (830e466)=T pbc="F F F"
C       12.30633873      -0.05890582       2.49896370
O       11.19491818       0.24239658       1.68973761
H       12.08753031      -0.88410136       3.19751444
H       13.10547571      -0.37462048       1.81990910
C       12.76567577       1.07925221       3.27457048
N       13.07747711       1.98990698       3.89011266
H       10.49038420       0.61998188       2.22929201
