9
 energy: -16.129297617975 gnorm: 0.000961411635 xtb: 6.2.3 (830e466)
C        -3.97697885463333    2.96678892212700   -1.27952319834958
O        -4.56430657390864    1.77253256255693   -1.37811642640275
N        -3.16777930528050    3.17447530215405   -0.34441405554930
H        -5.17089155998773    1.72243571512015   -2.12510385584758
H        -2.75064234833928    4.09657843903592   -0.31884726489379
H        -4.26040048534244    3.69857800020030   -2.05608103274042
C        -2.81494331021793    0.75830440312906    1.61374574518228
N        -2.67055220955440   -0.10097482801440    2.34900623773952
H        -2.94970535273665    1.56218148369078    0.93053385086298
9
Properties=species:S:1:pos:R:3 energy:=T -16.179207835752=T gnorm:=T 0.000268606059=T xtb:=T 6.2.3=T (830e466)=T pbc="F F F"
C       -4.20886579       2.27692949      -1.05668581
O       -4.43888312       1.95217608      -2.33113741
N       -3.53606136       1.51762656      -0.32641785
H       -5.01993214       2.58600950      -2.76736665
H       -1.75146780       3.03839555       0.63627650
H       -4.66831378       3.21571070      -0.70532878
C       -3.06994198       1.67661622       0.94366625
N       -2.13802074       2.41897302       1.34734116
H       -3.49471327       0.96846287       1.65085259
