12
 energy: -21.243909556097 gnorm: 0.000408774430 xtb: 6.2.3 (830e466)
C        -0.10385706753350    0.01880842270693    0.45834571332700
N         0.76856427625055   -0.47490604647703   -0.56876412120672
O        -1.43103631146285   -0.19080430546514    0.12920658384553
O         0.16158933585634    1.38404419424161    0.67107458429991
H        -1.61491460624614    0.20235829882685   -0.73422670351734
H        -0.44089117295017    1.73346858170318    1.33614404258013
H         0.06474085283290   -0.56275220099177    1.37788864078435
H         1.72839993005845   -0.47286723052047   -0.24468296728470
H         0.71949986485696    0.13833688506167   -1.37852381372348
C        -0.00373569866240   -3.49679189810908   -1.13917379901538
N        -0.20895518725252   -4.59468698307329   -1.36514704261554
H         0.19369578425240   -2.47319771790369   -0.93053111747537
12
Properties=species:S:1:pos:R:3 energy:=T -21.234464363396=T gnorm:=T 0.000620520970=T xtb:=T 6.2.3=T (830e466)=T pbc="F F F"
C        0.33110962      -0.57858538       0.25396357
N        1.51495173       0.00837999      -0.34661798
O       -2.39547610      -1.43354760      -0.63947495
O       -0.67479438       0.40796428       0.29625712
H       -2.17063075      -0.58849913      -0.19950630
H       -0.25547075       1.24047496       0.54338501
H        0.60699193      -0.87080581       1.28608581
H        2.32361020      -0.58834372      -0.23081509
H        1.36778267       0.16009423      -1.33983235
C       -0.15185188      -1.82712936      -0.46858795
N       -1.29833772      -2.18559587      -0.84640885
H        0.63521545      -2.53339658      -0.69683805
