9
 energy: -16.138623556149 gnorm: 0.000974297378 xtb: 6.2.3 (830e466)
C        -4.78615361536312    2.95499261611503   -0.05029932414260
O        -4.64563414183537    2.04417119769007   -1.02578577776592
N        -5.81337657371084    3.62594012979332    0.18528822615548
H        -3.75697881977683    1.64860757835721   -1.01641196975844
H        -6.58666298393874    3.42878001915499   -0.44608647082294
H        -3.91971258055979    3.11484403103126    0.59143200171980
C        -0.91418753821641    0.93897729429440   -0.27488466214021
N        -1.98299849380264    1.20528473465797   -0.55944896903498
H         0.07960474720705    0.68920239890694   -0.01249305421106
9
Properties=species:S:1:pos:R:3 energy:=T -16.125083742807=T gnorm:=T 0.000751991227=T xtb:=T 6.2.3=T (830e466)=T pbc="F F F"
C       -3.64203261       3.04248497       0.68035253
O       -3.90930335       0.85062203      -2.31883016
N       -4.55667456       2.67013050      -0.09706114
H       -3.13193168       0.39227811      -1.99425252
H       -5.43205358       3.18363517      -0.04456465
H       -3.69433378       3.86059863       1.41045864
C       -2.38275587       2.37518350       0.66809594
N       -1.36173884       1.85839619       0.68567045
H       -4.21527574       1.41747090      -1.59855910
