10
 energy: -13.520298631746 gnorm: 0.000674138199 xtb: 6.2.3 (830e466)
C        -1.89088249013619   -0.15882268886714    0.41113133726525
C        -1.84151761495620    0.88313686748604   -0.69770161554615
C        -1.19207733647760   -1.43481010499415    0.04196289118193
O        -0.64069256955224   -1.65990224572681   -0.99670750818892
H        -1.22590447424406   -2.19761706261392    0.84885271027040
H        -2.92451906848566   -0.41142232589087    0.66499225894235
H        -1.42352579858027    0.21971065348807    1.32488859438664
H        -2.35667780303441    1.79118582888076   -0.39440070162075
H        -2.31244271853819    0.49418268233585   -1.59725288338481
H        -0.80896012599518    1.12636839590217   -0.93626508330594
10
Properties=species:S:1:pos:R:3 energy:=T -13.444264378158=T gnorm:=T 0.000303840183=T xtb:=T 6.2.3=T (830e466)=T pbc="F F F"
C       -1.51693586      -0.58191324      -0.11931333
C       -1.47815174       0.26262166      -1.14488525
C       -0.54585478      -1.67799309       0.00588934
O        0.34471825      -1.90971114      -0.77022903
H       -0.69331266      -2.30790699       0.90536655
H       -4.15455737       1.98966842       1.07406997
H       -2.26050240      -0.49907962       0.66030069
H       -3.40943262       2.15521591       1.22243088
H       -2.18029078       1.07105790      -1.25758472
H       -0.72288005       0.15005020      -1.90654509
