12
 energy: -21.564885398034 gnorm: 0.000256697814 xtb: 6.2.3 (830e466)
C         1.79747874813824    1.71611670021754   -2.15011583043415
C         1.97753784618167    0.78863912130032   -0.97533428304732
C         1.12465417246023   -0.17534410175935   -0.63768401135480
O         0.83677220223972    2.74118978943694   -1.96754187618497
O        -0.48083293463666    2.19654767517651   -2.08897447612170
O        -0.04214314301010   -0.47384185085044   -1.23355691547470
H        -1.00711337853541    2.78836792842002   -1.53661063526949
H         2.71286659270103    2.28479657907454   -2.32425244430156
H         1.54997353497958    1.15715664896236   -3.06413991255643
H         1.32500129799585   -0.83511453827666    0.19562731880901
H        -0.26461165576969    0.21950562434013   -1.87769797515547
H         2.85970671725557    0.93168042395807   -0.37549895890847
12
Properties=species:S:1:pos:R:3 6.2.3=T gnorm:=T pbc="F F F" energy:=T -21.483716042767=T xtb:=T 830e466=T 0.000983853863=T
C       1.17393601       1.35668925      -2.85145506 
C       1.09665638       0.44912752      -1.92608163 
C       0.93531877      -0.43108718      -0.97885669 
O       0.68057590       2.63569629      -2.81645484 
O      -0.10437700       2.89859556      -1.67028222 
O      -0.08346302      -1.32355550      -0.87793769 
H       0.42617021       3.52401669      -1.15492502 
H       2.65582814       2.06186092      -0.28017896 
H       1.68612596       1.23412940      -3.79776781 
H       1.65200276      -0.56496356      -0.17805966 
H      -0.72801476      -1.16747816      -1.57900528 
H       2.99853063       2.66666876       0.07522487 
