12
 energy: -21.617575879939 gnorm: 0.000879741069 xtb: 6.2.3 (830e466)
C         0.06333579604006    1.55376945029375   -2.65397159837264
C         0.10252427480153    0.69436750506422   -1.40186454368241
C         1.22241847047244   -0.28915086179131   -1.57408358784434
O        -0.79512774989464    1.49627592364765   -3.48107081828534
O         2.34441288880671    2.61265209691662   -0.35282640282221
O         2.38707246141215   -0.02829475858712   -1.43210038379088
H         3.11520038084091    3.04306692534267    0.01914347481331
H         2.64328841188988    1.76043931093666   -0.70354256386204
H         0.92141729936562    2.24009112770906   -2.72890800327945
H         0.90109664943442   -1.29751979701149   -1.88477561089401
H        -0.85121745595349    0.18749055312862   -1.26857591513527
H         0.33486857278285    1.36682252434930   -0.57321404684562
12
Properties=species:S:1:pos:R:3 gnorm:=T 6.2.3=T 0.000821781837=T pbc="F F F" energy:=T xtb:=T -21.591188922434=T 830e466=T
C      -0.04196655       1.55675128      -2.66196346 
C      -0.11581625       1.64041311      -1.15421374 
C       2.77452298      -0.06051186      -1.18461589 
O      -0.99852775       1.51016920      -3.37959386 
O       1.13504442       1.67725596      -0.51379330 
O       3.17180370       0.48298383      -2.17419167 
H       3.22066761       0.10606683      -0.19274408 
H       1.64954606       2.41824052      -0.85738101 
H       0.99119797       1.54529551      -3.05759968 
H       1.96222173      -0.80429204      -1.20049407 
H      -0.63212711       0.75274242      -0.77563910 
H      -0.72727681       2.51489522      -0.88356014 
