12
 energy: -21.564394445259 gnorm: 0.000662022975 xtb: 6.2.3 (830e466)
C         1.49059981276119    1.03616572201133   -2.30896564278609
C         0.91074636122204   -0.08617559607404   -1.49355474752805
C         0.48531918614173   -0.00476765691806   -0.23747657927359
O         1.00364498798597    2.27260848650401   -1.81306670465873
O         1.61825129015951    3.35671288919563   -2.48770794910819
O         0.45340964706981    1.08298620184167    0.54888508177283
H         0.88682199928857    3.79630407319266   -2.94505010035582
H         2.58961622188559    1.02960218430390   -2.25082518721821
H         1.20475701937753    0.91946678171027   -3.36371785057908
H         0.10226447449118   -0.87694746680623    0.27481383831484
H         0.76528534512691    1.84971392455777    0.04078705207141
H         0.87866365449000   -1.03576954351890   -1.99980121065135
12
Properties=species:S:1:pos:R:3 6.2.3=T gnorm:=T -21.561957067816=T pbc="F F F" energy:=T 0.000185216179=T 830e466=T xtb:=T
C       2.11174313       1.39672166      -1.97124816 
C      -0.13093211      -0.23723301      -1.32698245 
C       0.73175447       0.22762542      -0.44127118 
O       1.17016120       2.19643799      -2.61705119 
O       1.25643502       3.54003090      -2.18571445 
O       1.78821725       1.06854349      -0.65305777 
H       0.53787466       3.64252201      -1.54333300 
H       3.08366394       1.90092248      -1.91977942 
H       2.17131223       0.50081694      -2.60512426 
H       0.68487725      -0.02038033       0.61003256 
H      -0.10357782       0.02740054      -2.36873718 
H      -0.91214922      -0.90350808      -1.01341350 
