12
 energy: -21.516309424507 gnorm: 0.000466131969 xtb: 6.2.3 (830e466)
C         0.01799027040044    1.54596414070858   -3.42978196864996
C        -0.99794768341844    1.05939086773015   -2.74226924244423
C         3.02493602371514    0.40024913553700    0.83641074238275
O         1.14651006672146    2.13534413958505   -2.96192990043907
O         1.19028786752862    2.26007882630297   -1.55642507016191
O         2.67075629924087    0.18167469493507   -0.28462024673465
H         1.70831586280396    1.48539436316526   -1.25532120407195
H         3.61045488278450   -0.32446710506837    1.42080086168323
H         0.08944821843607    1.53088798128879   -4.50843921138907
H         2.78920787024185    1.34026494623923    1.35772503602724
H        -1.83377741108585    0.61205391069024   -3.24331061220017
H        -1.02707226736642    1.11336409888480   -1.66884918400465
12
Properties=species:S:1:pos:R:3 6.2.3=T gnorm:=T pbc="F F F" energy:=T -21.526838718258=T xtb:=T 830e466=T 0.000825311388=T
C       0.47160699       1.29308022      -3.05504928 
C      -0.49159000       1.00676048      -2.20226088 
C       2.56325754       0.21334343      -1.06515780 
O       1.78698123       1.53987240      -2.81032971 
O       2.17059705       1.42658924      -1.44062659 
O       2.58930095      -0.78797332      -1.69836891 
H       1.16841235       2.59957271       0.70529924 
H       2.86161539       0.32793162      -0.00519189 
H       0.34222950       1.37520675      -4.12517040 
H       0.73864235       2.57893705       1.35454918 
H      -1.49036161       0.83352382      -2.55196785 
H      -0.32158174       0.93335560      -1.14173512 
