12
 energy: -21.614878882433 gnorm: 0.000496955886 xtb: 6.2.3 (830e466)
C         0.96157638270606    0.79160136437938   -2.99665426798892
C         0.43330099463630    0.60461456450619   -1.60266162662388
C         1.02661112212350   -0.58603165495136   -0.91010159713226
O         0.33935995309384    1.26345401846581   -3.90489268959998
O         1.47841338160470    3.29535581387622   -0.44997134418730
O         2.12369467867750   -1.02633352171450   -1.10427419942718
H         1.18445642752998    4.04199166553557   -0.97739210894502
H         2.38310323114284    3.47204784846253   -0.18255193727763
H         2.00513140962462    0.44941314388190   -3.11522018781813
H         0.34899821993890   -1.04696600848122   -0.16566146403176
H        -0.65656333131596    0.58897805468566   -1.58842535199768
H         0.76102753023672    1.49197471135175   -1.03800322497155
12
Properties=species:S:1:pos:R:3 6.2.3=T gnorm:=T pbc="F F F" 0.000971800095=T energy:=T -21.571302418441=T xtb:=T 830e466=T
C       1.28688484       1.11297622      -2.58686660 
C       1.52233253       1.03745468      -1.08847119 
C       1.35008420      -0.44105483      -0.72583131 
O       0.22654145       0.95214991      -3.11563161 
O       2.78807118       1.48361545      -0.70441998 
O       2.21301339      -1.15045608      -0.32036653 
H      -1.66175451       3.20474805      -1.73318469 
H       2.89396105       2.41625791      -0.92115735 
H       2.21361592       1.31309558      -3.15405717 
H       0.31423257      -0.77905725      -0.90914575 
H      -1.46640243       2.61243247      -2.20100322 
H       0.70852982       1.57793789      -0.57567461 
