12
 energy: -21.513020388066 gnorm: 0.000879478839 xtb: 6.2.3 (830e466)
C         1.81096734116876    1.59731045900020   -1.54495078145455
C         0.90389016345282    1.09194116406898   -0.70010070129197
C         0.92284199319906   -0.32427453163415   -0.37715892270170
O         1.96086767563876    2.84752533249262   -1.96838364763624
O         1.01027032834324    3.75490199237865   -1.42241552279394
O         1.72146826785087   -1.12870724911293   -0.79626685831499
H         1.23753361865376    4.58454450172215   -1.86659344088271
H        -0.20868683945605   -0.54714605620967   -4.04104052287734
H         2.57409954675345    0.97726036746743   -2.00181508758069
H         0.11526894514868   -0.63414202013953    0.31330567290523
H         0.19057131478489   -0.59926196768066   -3.37578382019254
H         0.15009764446420    1.71985800764618   -0.25459636717716
12
Properties=species:S:1:pos:R:3 -21.518632377657=T gnorm:=T 0.000754940433=T pbc="F F F" energy:=T xtb:=T 6.2.3=T 830e466=T
C       1.75285129       0.22163857      -1.96390803 
C       0.95463240       0.38980703      -0.91363726 
C       0.83157953      -0.63664405       0.12862586 
O       0.84103437       3.18970729      -3.33613738 
O       0.54142017       3.63149850      -2.01967704 
O       1.41675944      -1.68967300       0.14366041 
H       1.41032747       3.89311817      -1.68762981 
H      -0.03508818       3.14208383      -3.74145968 
H       1.85174687       0.96386063      -2.73801144 
H       0.13003493      -0.36730007       0.94346576 
H       2.32939546      -0.68430708      -2.06518141 
H       0.36449625       1.28602017      -0.78590998 
