12
 energy: -21.564386980141 gnorm: 0.000220350029 xtb: 6.2.3 (830e466)
C         1.68261532085302    1.73657580200186   -1.26429573406831
C         1.28506409540488    0.51247859923343   -0.48696186361535
C         0.53825474541341   -0.49319143551078   -0.92984296664630
O         0.73976038469811    1.96120749009520   -2.29981382167153
O         1.16219458893003    3.02681667471468   -3.13374534057421
O        -0.03874319264315   -0.61800615759781   -2.13590795746271
H         0.46604862423335    3.69218603729118   -3.03866774957040
H         1.71748102259238    2.60918579190631   -0.59674705572305
H         2.68168354204847    1.60551650614764   -1.70667907349202
H         0.32350102334953   -1.34340399304537   -0.29669467292968
H         0.14578034318612    0.18005039062163   -2.65792543575601
H         1.68575950193379    0.47029429414187    0.51147167150950
12
Properties=species:S:1:pos:R:3 6.2.3=T gnorm:=T pbc="F F F" -21.629915077632=T energy:=T xtb:=T 830e466=T 0.000815193083=T
C       1.36251516       1.36984553      -0.98409542 
C       1.20838292       0.18279755      -0.20116109 
C       0.51115725      -0.87333624      -0.69533502 
O       0.89044580       1.52008261      -2.11085457 
O       1.75256343       4.04841311      -3.18159948 
O      -0.05805191      -0.89891997      -1.87414549 
H       1.18397148       4.30074321      -3.91144976 
H       1.94325468       2.18324927      -0.52641610 
H       1.44377813       3.18114319      -2.88519130 
H       0.37975787      -1.78820120      -0.12692099 
H       0.11938538      -0.02326817      -2.31535989 
H       1.65223981       0.13716111       0.77671910 
