9
 energy: -16.536944958275 gnorm: 0.000569595291 xtb: 6.2.3 (830e466)
C         1.08098263393010    0.87098801655269   -2.64265370117037
C         0.31033911164455    0.56244163727083   -1.37761535768362
C         0.74711325955321   -0.81646787867069   -0.93188022054298
O         0.67796584742106    0.66169119197933   -3.74781803865155
O         1.55596635592774   -1.02689890156921   -0.07866635689085
H         2.08398678710944    1.29076344561286   -2.45421695458177
H         0.26215588367243   -1.63158236965786   -1.49604434283437
H         0.55646444262754    1.29042645216757   -0.60574116586870
H        -0.75648432188606    0.54834840631445   -1.59897386177581
9
Properties=species:S:1:pos:R:3 6.2.3=T gnorm:=T pbc="F F F" energy:=T xtb:=T 830e466=T -16.547451943248=T 0.000315476241=T
C       0.92189781       0.85049576      -2.31236294 
C      -0.16590595       1.24975483      -1.67779685 
C       1.40383834      -1.20646954      -1.20670431 
O       1.67545054      -0.27881554      -2.12598275 
O       2.07798254      -2.17909513      -1.06947865 
H       1.36169550       1.42965465      -3.11306606 
H       0.51136002      -1.00107094      -0.58813542 
H      -0.63889109       0.70960724      -0.87768337 
H      -0.62893771       2.17564866      -1.96239965 
