10
 energy: -15.384863733239 gnorm: 0.000253416079 xtb: 6.2.3 (830e466)
C         0.81145158451894    1.55270394708525   -2.19219783710771
C        -0.26258272825071    0.92511021815149   -1.31190719663434
O         0.79542058895902    2.95826983377973   -2.17582629678894
O         1.23096502316089    3.42496073236820   -0.89406605665968
H         1.25312853824294    4.38006674567332   -1.02947255158554
H         1.80528696766084    1.19163507944359   -1.89870759652645
H         0.64097078518322    1.32572917219783   -3.24809186775679
H        -0.20993577611580   -0.15723463344757   -1.38452917815508
H        -0.10458251170542    1.22052455567501   -0.27784848651421
H        -1.24893247165393    1.25814434907314   -1.62495293227127
10
Properties=species:S:1:pos:R:3 6.2.3=T gnorm:=T pbc="F F F" -15.450410556347=T 0.000495376882=T energy:=T xtb:=T 830e466=T
C       0.64284030       1.53722408      -2.37113482 
C       0.44307225       1.44709163      -0.85450404 
O      -0.07331184       2.59658643      -2.95191776 
O       0.63957088       2.67730998      -0.20612182 
H       1.44364163       3.08459287      -0.54756341 
H       1.69412745       1.73425567      -2.60277739 
H       0.36169585       0.57413409      -2.82380608 
H       1.11802764       0.67586483      -0.45303782 
H      -0.58726282       1.15784545      -0.62552779 
H      -0.97121133       2.59500499      -2.60120906 
