12
 energy: -21.614998338582 gnorm: 0.000732111733 xtb: 6.2.3 (830e466)
C         0.39883762237642    0.75359905635178   -2.96004198351964
C         0.35186546160580    0.61857096043834   -1.46409720609990
C         1.28438044245270   -0.44324229489434   -0.95945132859463
O        -0.54483427682158    1.00213286179218   -3.65338163118908
O         1.79318408549719    3.22416228913337   -0.56714198598314
O         2.35697457906652   -0.70044393462826   -1.42748669591522
H         1.63573716418424    4.12239675174105   -0.86760607339759
H         2.74380020612128    3.10367511434061   -0.50755730494552
H         1.41029127657431    0.60019268724441   -3.37705079822157
H         0.89839762336259   -0.99170809562507   -0.07879412811412
H        -0.66850676247593    0.47759947777963   -1.10926171814474
H         0.72886257805425    1.57265512632690   -1.06391914587582
12
Properties=species:S:1:pos:R:3 6.2.3=T gnorm:=T 0.000802463093=T pbc="F F F" energy:=T -21.621121583766=T 830e466=T xtb:=T
C       0.45374054       1.36179545      -2.70548414 
C       0.06101823       0.62481831      -1.46964891 
C       0.92485039       1.03759509      -0.25119106 
O       0.63097585       2.55556969      -2.73998265 
O       1.18401848       2.32792697      -0.15803974 
O       1.28942290       0.22742339       0.54683715 
H       3.63888239       0.80477856      -2.26536500 
H       0.93565096       2.81538345      -0.97694306 
H       0.59541749       0.74318654      -3.60596383 
H       3.52986980       0.38723341      -1.61746478 
H       0.10596747      -0.45498212      -1.59384781 
H      -0.96082449       0.90886127      -1.19869618 
