12
 energy: -21.617574175859 gnorm: 0.000706100940 xtb: 6.2.3 (830e466)
C         0.86749463786444    1.10883203109822   -2.92630884202730
C         0.01577412109064    0.91811496662627   -1.70550083503887
C         0.62339411522074   -0.23199994479960   -0.91752774363345
O         1.90462588799446    1.71501121325405   -2.94694042004300
O         2.30003739067613    2.52584640182368   -0.23782767439536
O         0.16172583528173   -1.33189154983627   -0.87475200795808
H         2.39498349375759    2.40114578768712   -1.19339558074083
H         3.02009415688842    3.09398589840400    0.03851107504977
H         0.48443753585729    0.60869610381587   -3.83104183692585
H         1.54629171510539    0.05247153507329   -0.38968247043177
H        -1.00913236640216    0.67657064161129   -1.98023052877108
H         0.07958347666541    1.80322691524311   -1.07120313508344
12
Properties=species:S:1:pos:R:3 6.2.3=T gnorm:=T 0.000894037488=T pbc="F F F" -21.654928249499=T energy:=T xtb:=T 830e466=T
C       0.73024536       1.53412687      -3.06006570 
C      -0.41179020       1.48460790      -2.11495094 
C       2.26500329       0.28861818       0.19566994 
O       1.86593274       1.81175511      -2.75870054 
O       2.89693432       1.31976473      -0.29471356 
O       1.34064076      -0.28997501      -0.30593315 
H       2.54753980       1.58253234      -1.19151170 
H      -0.32844256       0.53737086      -1.57385973 
H       0.49119535       1.26783590      -4.10512174 
H       2.69440030       0.00367346       1.17134896 
H      -1.36738118       1.52372779      -2.62573024 
H      -0.33496798       2.27597185      -1.37233158 
