12
 energy: -21.564385623152 gnorm: 0.000927456278 xtb: 6.2.3 (830e466)
C         2.03043324995320    1.52391074898374   -2.01062477226593
C         1.68562337841484    0.74385464679533   -0.76850687939685
C         0.59802829412975   -0.00680194848757   -0.62682226933307
O         0.90336656570173    1.91559543171412   -2.78112735280183
O         0.19419961128022    2.96419014971732   -2.15084744290669
O        -0.37745538655265   -0.19348147786441   -1.54231268684489
H        -0.51639041958954    2.52963064379383   -1.65394372006350
H         2.62652716066546    2.40602951972657   -1.75165139842923
H         2.60243886143116    0.91305447224767   -2.72041706135883
H         0.38983396909219   -0.54067325955224    0.28968004317387
H        -0.13701119171135    0.27083475004031   -2.36166395879929
H         2.38961590718500    0.81366632288529    0.04252749902613
12
Properties=species:S:1:pos:R:3 6.2.3=T gnorm:=T -21.558944268886=T 0.000964383430=T energy:=T xtb:=T 830e466=T pbc="F F F"
C       2.00364013       1.46081073      -2.07749393 
C       1.64449648       0.54379574      -0.93699302 
C       0.48020494       0.48895477      -0.29403801 
O       1.05372078       1.40958725      -3.13992003 
O      -0.62102613       2.35048974      -1.20812309 
O      -0.67052653       1.16917843      -0.43927549 
H      -0.26492122       2.09057498      -2.08758757 
H       2.01675733       2.50784554      -1.76078087 
H       2.99772445       1.20103305      -2.45610304 
H       0.31160489      -0.24489975       0.48455291 
H       1.03092379       0.51383383      -3.49395279 
H       2.40661109      -0.15139431      -0.62599508 
