12
 energy: -21.513404417184 gnorm: 0.000851561280 xtb: 6.2.3 (830e466)
C         0.99316202147367    1.75236356813741   -1.70706059429219
C         0.93387618527460    1.13005769106642   -0.52310104389593
C         1.50863207866333   -0.19403169653437   -0.36827884516213
O         0.53087427681842    2.94976979062521   -2.04924710346837
O        -0.10197234515584    3.64787579475220   -0.98238023889823
O         2.07897752671541   -0.81709543961395   -1.23223851831153
H        -0.36274697013897    4.47736350109932   -1.40721719762989
H         1.87379134134193   -1.01702646951833   -3.72138228778842
H         1.45924822778523    1.29379224525736   -2.57197363155087
H         1.38572169993765   -0.61845236252849    0.64558056679854
H         1.62742234341431   -0.86207041157168   -4.44417707644041
H         0.46220361388159    1.59724378886389    0.32556597064157
12
Properties=species:S:1:pos:R:3 -21.513531533180=T gnorm:=T pbc="F F F" energy:=T xtb:=T 6.2.3=T 0.000852634503=T 830e466=T
C       1.58235663       1.87197882      -2.16426450 
C       2.15328771       1.49639046      -1.03358536 
C       0.64639427      -0.81678767      -1.44589401 
O       0.41817799       2.54260566      -2.32711895 
O      -0.24316132       2.82604670      -1.09705994 
O       1.47004468      -1.52638908      -1.94419078 
H      -0.85836439       3.52504217      -1.35578270 
H       3.08775682       0.97114959      -1.04310649 
H       1.98037186       1.68038445      -3.15107369 
H       0.57084452      -0.66181800      -0.35793072 
H      -0.13041163      -0.30187952      -2.03358055 
H       1.71189285       1.73306642      -0.08232229 
