12
 energy: -21.563083680655 gnorm: 0.000913779797 xtb: 6.2.3 (830e466)
C         1.77675867182990    2.01335138194409   -1.72224161996043
C         1.40326772656529    0.56587505936796   -1.79295602374407
C         1.11572826023159   -0.16104775253381   -0.72257825077657
O         0.83417091403812    2.85907520147900   -2.34485782056689
O        -0.38487742508572    2.84215032271388   -1.59606701857617
O         0.75255543348050   -1.46145955878678   -0.71946334254139
H        -0.88907818111567    3.54622391622994   -2.02456779168344
H         1.92367232558804    2.32054398533713   -0.67996447259215
H         2.68343208717536    2.21867057165048   -2.30036093293096
H         1.17273248620739    0.23401754453377    0.28161326896209
H         0.68403916431088   -1.78484930593296   -1.62717271070692
H         1.31689853677438    0.14724863399741   -2.78708328488307
12
Properties=species:S:1:pos:R:3 6.2.3=T gnorm:=T pbc="F F F" -21.539200001539=T energy:=T 0.000306516917=T 830e466=T xtb:=T
C       1.95341718       2.02416925      -2.06784540 
C       1.84804686       0.55616723      -1.77992603 
C       0.56858620       0.22565081      -1.94357900 
O       0.61373709       2.40612654      -2.37539139 
O      -0.23078669       1.26183734      -2.30650334 
O      -0.07965658      -0.93792893      -1.81961723 
H      -0.33311191       2.57678773       0.47111385 
H       2.29733065       2.61018192      -1.20380846 
H       2.59591342       2.24915274      -2.93177502 
H      -0.05313951       2.06690430       0.98810021 
H       0.53974732      -1.63177986      -1.56565717 
H       2.66921596      -0.06746907      -1.50081102 
