12
 energy: -21.508569033027 gnorm: 0.000740719923 xtb: 6.2.3 (830e466)
C         1.30154670518479    1.62035963298968   -1.90484556364598
C         0.28921194530311    0.92029364027913   -1.00615491500582
C         1.80922088017155   -1.85390070117862   -0.73593823284558
O         0.75889955222099    2.70348907914494   -2.61694612391707
O         0.45301218122924    3.76596810070138   -1.70720577347408
O         2.12910645254471   -2.04393562825109   -1.80216269900347
H         0.11120315509229    4.44362275277751   -2.30342390986970
H         2.16493083270771    1.95793458085561   -1.31745590536953
H         1.64492348414658    0.96054798348087   -2.70660694724950
H        -0.05904407133064    1.60864510427164   -0.24051497367002
H        -0.56337947383879    0.58323793955079   -1.59113816480994
H         0.75509835657004    0.06032751537650   -0.52418679113855
12
Properties=species:S:1:pos:R:3 6.2.3=T gnorm:=T pbc="F F F" energy:=T -21.480537042943=T xtb:=T 830e466=T 0.000765468610=T
C       1.36329064       1.55482077      -2.28906343 
C       0.43581767       0.56479012      -1.57759452 
C       1.55796524      -1.09624410      -0.27332167 
O       0.71777735       2.74968922      -2.62174407 
O       0.38064780       3.45599171      -1.42547544 
O       1.14234597      -0.67699819      -1.38184310 
H       0.27555373       4.36161032      -1.74359419 
H       2.24460485       1.75049838      -1.66280993 
H       1.68290377       1.15385394      -3.25416724 
H       0.11944679       0.97879534      -0.61261202 
H      -0.43664147       0.35137983      -2.19960709 
H       1.31101766      -0.42159736       0.58525270 
