12
 energy: -21.514426474911 gnorm: 0.000218225044 xtb: 6.2.3 (830e466)
C         0.00439770565560    1.01690245020139   -2.80083748810569
C        -0.77605476457252    0.92457478496587   -1.74154185886053
C         2.58863905972787    0.59037412152671   -0.13024115817156
O         1.17979685709837    1.67925388869529   -2.92348070714933
O         1.58397225938192    2.33571143697335   -1.72513780601142
O         3.72219311785237    0.68588601359529   -0.49706370855989
H         2.44083091290440    2.70516344681933   -1.98278605163344
H         2.15313831273667    1.25193869322629    0.63549316944963
H        -0.19505087558330    0.55488677596851   -3.75794610354771
H         1.90172468573706   -0.18270155933800   -0.51036535246292
H        -1.68849045890565    0.36274969450348   -1.78301358855730
H        -0.52590681203220    1.41537025286346   -0.81887934638991
12
Properties=species:S:1:pos:R:3 6.2.3=T gnorm:=T pbc="F F F" 0.000878091706=T -21.626321853503=T energy:=T xtb:=T 830e466=T
C       0.22843257       0.43514946      -2.72799425 
C      -0.59513386       0.97752320      -1.85042429 
C       2.16710708       0.24413907      -1.42111924 
O       1.59838857       0.40617691      -2.61266736 
O       1.71342237       2.71091396      -0.21042064 
O       3.34049256       0.36961665      -1.24046363 
H       1.90343051       3.42631474      -0.82190763 
H       2.56052970       2.40194177       0.12180130 
H      -0.08868422      -0.01067945      -3.66045671 
H       1.45551897      -0.05780154      -0.62752189 
H      -1.65422954       0.97298194      -2.02669074 
H      -0.24008470       1.46383330      -0.95793493 
