9
 energy: -16.536952891040 gnorm: 0.000573088467 xtb: 6.2.3 (830e466)
C         1.05882383248535    1.21270096228514   -2.40372220764989
C         0.18113603958956    0.36312505455493   -1.50895093989894
C         1.01955816243214   -0.81558220414478   -1.06796403017458
O         1.54187760799869    2.25647652666192   -2.08312210198011
O         1.13895908602053   -1.82952911868225   -1.68875474692619
H         1.23570562518937    0.75979619671366   -3.39505476336505
H         1.55273994652853   -0.64704477385170   -0.11584774865911
H        -0.66355892662374    0.00123583131510   -2.09560709115266
H        -0.14364137362043    0.94703152514798   -0.64927637019347
9
Properties=species:S:1:pos:R:3 6.2.3=T gnorm:=T 0.000631634239=T pbc="F F F" energy:=T xtb:=T 830e466=T -16.496285688393=T
C      -0.20037409       1.44162066      -1.65566597 
C      -1.21321639       2.18580554      -1.37730601 
C       2.73051284      -1.79065339      -1.88795898 
O       0.71446673       0.76806462      -1.90561065 
O       3.25954250      -2.84993753      -1.73486427 
H       3.00282622      -1.09848738      -2.70152671 
H       1.92791342      -1.42156766      -1.23025108 
H      -2.15458433       2.04888752      -1.87145419 
H      -1.14548689       2.96447762      -0.64366214 
