12
 energy: -21.516456940845 gnorm: 0.000780384592 xtb: 6.2.3 (830e466)
C         0.28419573746964    1.18931369446211   -2.50356675268717
C        -0.29114889006015    0.80759176799711   -1.37272439190743
C         2.33610938964350    0.20543547063284   -0.81672129336400
O         0.95492796245720    2.33145864652569   -2.75864142515888
O         1.00011969908857    3.23478350098158   -1.67423885999901
O         2.84052060121275    1.29242265416444   -0.80932968565431
H         1.85733140047712    3.05257660237013   -1.24986863096890
H         2.44365679661365   -0.49042614115625   -1.66266558544078
H         0.30230904574201    0.59444964214855   -3.40733632655635
H         1.77967043271117   -0.19681758160053    0.04279253501760
H        -0.79740884876170   -0.13622348324257   -1.30917919780301
H        -0.32108332659390    1.45533522671908   -0.51432038547748
12
Properties=species:S:1:pos:R:3 6.2.3=T gnorm:=T pbc="F F F" 0.000739341886=T energy:=T -21.565024622710=T xtb:=T 830e466=T
C       1.07650148       1.55400180      -1.54504803 
C      -0.17131433       1.22615945      -1.24708584 
C       1.93701273      -0.63831346      -1.58553326 
O       1.54308285       2.82984815      -1.72857032 
O       0.52521022       3.79829558      -1.55431353 
O       2.14947554       0.74582686      -1.73341215 
H       1.00883724       4.61634839      -1.73903463 
H       2.90258121      -1.10317728      -1.77541870 
H       1.20309929      -1.00781264      -2.30780518 
H       1.60395920      -0.88272447      -0.57245913 
H      -0.47826663       0.20886458      -1.11619905 
H      -0.91097879       1.99258304      -1.13092017 
