12
 energy: -21.604376652347 gnorm: 0.000776829570 xtb: 6.2.3 (830e466)
C         1.22726635471478    1.28841080169998   -2.81242039286334
C         0.14785444108276    0.96182666281571   -1.78157954902665
C         1.04552503772739    0.83567325467897   -0.54847222002281
O         2.34084429179629    0.51690482383171   -2.42926621538720
O         1.20503287894704    2.10252904168219    0.01755360348188
O         2.25149659962489    0.30509726726759   -1.00924531990257
H         1.98038739965651    2.09570672368096    0.59154377425403
H         1.46956366301561    2.35941136108099   -2.78398619427502
H         0.97578757175221    0.98398691648574   -3.82843214288904
H         0.66637340599700    0.12378594584136    0.20219687428098
H        -0.33861333005298    0.01253253988661   -1.99749722864944
H        -0.58241831426150    1.75413466104821   -1.65600498900081
12
Properties=species:S:1:pos:R:3 6.2.3=T gnorm:=T pbc="F F F" 0.000342027754=T energy:=T xtb:=T 830e466=T -21.591339302161=T
C       1.88772707       1.46894031      -2.38503959 
C       0.08182722       0.40211892      -1.37423655 
C       1.29194720       1.27614820      -0.98447116 
O       1.64102403       0.27120694      -3.06871766 
O       0.96654450       2.50816269      -0.41477160 
O       0.52223025      -0.38911215      -2.44243479 
H       0.64909348       2.37612329       0.48489370 
H       2.96710403       1.62188312      -2.37875213 
H       1.39009874       2.32349481      -2.86402572 
H       1.98368868       0.70463567      -0.34954206 
H      -0.24073121      -0.27862943      -0.58419005 
H      -0.75145399       1.05502761      -1.67432239 
