12
 energy: -21.571806917442 gnorm: 0.000297455649 xtb: 6.2.3 (830e466)
C         1.39967444755654    1.40828686458428   -2.75994404528088
C         0.53629104408631    0.39183746620827   -2.02609305164777
C         1.45275454818702    0.02707897273202   -0.86285325442764
O         2.26452554415784    1.93661588250728   -1.76425023679927
O         2.44373690687232    0.93191039524594   -0.78788407978419
O         1.37157048590690   -0.89187789895413   -0.11033989451233
H         0.40499504303613    2.83673348245412    0.76355296436075
H         1.98947551492918    0.93339853727503   -3.55552694216501
H         0.85387684570538    2.26173706523689   -3.16152050681857
H        -0.23131847587985    3.16324181530477    0.45831076374165
H         0.28051842145219   -0.48584152105552   -2.61351262596129
H        -0.37681032600996    0.82677893846128   -1.61574909070555
12
Properties=species:S:1:pos:R:3 6.2.3=T gnorm:=T pbc="F F F" 0.000329374528=T energy:=T -21.592715396228=T xtb:=T 830e466=T
C       1.12391661       1.66054512      -2.59067159 
C      -0.31233007       1.20266611      -2.37576166 
C       2.22966574       0.43883208       0.45782498 
O       1.86517886       1.75191209      -1.39073112 
O       2.10144358       0.44803165      -0.86848405 
O       2.44823837      -0.56259213       1.05981891 
H       2.11530792       1.44462850       0.90347579 
H       1.64257697       1.00119086      -3.29555281 
H       1.16455367       2.68839224      -2.95957063 
H      -0.82194628       1.86722678      -1.68238687 
H      -0.32578841       0.19374968      -1.97010041 
H      -0.84152695       1.20531701      -3.32367054 
