12
 energy: -21.604819399839 gnorm: 0.000425496304 xtb: 6.2.3 (830e466)
C         1.25939340378418    0.95213952040159   -2.89764987944576
C         0.36550363742260    1.60419979399930   -1.83113085476889
C         1.17171310206843    1.32972067641067   -0.54710468959255
O         2.12508564611678    0.09632365392850   -2.18639572003658
O         0.43445391238996    0.47244706529642    0.26454577353405
O         2.39133162061614    0.77753939138087   -0.96475447437250
H         1.02084121400624    0.06570116383647    0.91279166507876
H         1.83393483003915    1.71056156406569   -3.44575645362909
H         0.71563983080791    0.31790520909813   -3.59664524131713
H         1.45053354995278    2.24375779021290    0.00147728969136
H        -0.59628149643414    1.10445292700512   -1.73649963249660
H         0.21705074923002    2.66524124436431   -2.00837778264511
12
Properties=species:S:1:pos:R:3 6.2.3=T gnorm:=T 0.000602913964=T pbc="F F F" -21.572036582348=T energy:=T xtb:=T 830e466=T
C       1.22299792       1.05364675      -3.19698343 
C       0.66448702       1.22467581      -1.79091804 
C       1.81009859       0.65420433      -0.96097874 
O       2.14352246      -0.02374010      -3.09189513 
O       2.00302786       0.75485241       0.20988439 
O       2.64390633      -0.01913747      -1.77078768 
H      -0.61767042       2.24144694       1.65150522 
H       1.74316502       1.96017564      -3.53466455 
H       0.49002102       0.74639726      -3.94301001 
H       0.05661679       1.87543865       1.51394436 
H      -0.22465499       0.61818518      -1.60870195 
H       0.45368240       2.25384461      -1.51289445 
