10
 energy: -20.529543974458 gnorm: 0.000453126458 xtb: 6.2.3 (830e466)
C         2.19546916137548    2.15580197465812   -2.08212421706780
C         2.21461478628525    0.72185352285419   -1.59539403002383
C         1.30275005775370    0.23136021582163   -0.81738291130298
O         0.92297253218337    2.57216800471826   -2.49549727617427
O         0.04341794727726    2.53893639512919   -1.37474611377840
O         0.49782041348999   -0.25790108271460   -0.13654987669168
H        -0.82224818840736    2.41052815783719   -1.78482607467684
H         2.57543781478519    2.83339273643994   -1.30343492105233
H         2.80147553619353    2.25869681053405   -2.98384834514180
H         3.02407993906354    0.09266326472206   -1.91609623409005
10
Properties=species:S:1:pos:R:3 -20.526683195311=T 6.2.3=T gnorm:=T 0.000820941153=T pbc="F F F" energy:=T xtb:=T 830e466=T
C       2.71169567       1.69166054      -1.93626054 
C       1.32274967       1.13140380      -1.71565986 
C       1.16440061       0.07672837      -0.94894074 
O       0.24984578       1.78747725      -2.23030358 
O      -0.11021829       2.94198734      -1.39715101 
O       1.09584633      -0.91938699      -0.35870713 
H      -0.81301386       3.34538326      -1.92115394 
H       2.78326681       2.67500187      -1.47424010 
H       2.89183737       1.79177085      -3.00465849 
H       3.45937991       1.03547370      -1.50282461 
