12
 energy: -21.604817409367 gnorm: 0.000286555341 xtb: 6.2.3 (830e466)
C         0.27836419208913    1.66212345315568   -2.57353571284052
C         0.44271004871643    0.45466017747725   -1.63674654150812
C         1.79189940954596    0.77174954601601   -0.96318167036000
O         1.18294442070177    2.63185563801875   -2.09502725757947
O         1.56868886000843    1.00407815983917    0.39129683364644
O         2.30722918516643    1.88922976118265   -1.63407948673378
H         2.31565404478323    1.49277760400420    0.75648158571347
H         0.51921136203878    1.39041519664545   -3.60993261025037
H        -0.70831685898624    2.12154473789287   -2.52715656957513
H         2.54987871379619   -0.01557416220577   -1.10416655897262
H         0.46163706866159   -0.48707352271584   -2.17702855778321
H        -0.32081044652169    0.42430341068960   -0.86252345375671
12
Properties=species:S:1:pos:R:3 6.2.3=T gnorm:=T pbc="F F F" 0.000713672270=T energy:=T xtb:=T -21.676941413316=T 830e466=T
C       0.70173730       1.56151847      -2.45744408 
C       0.40855006       0.54140888      -1.35455454 
C       1.01144441       0.91330173       0.00243570 
O       2.08765330       1.66777549      -2.73892272 
O       2.17002702       1.56711484      -0.04024450 
O       0.48928905       0.61156871       1.03759350 
H       2.43981803       1.77237289      -0.96099343 
H       0.39195479       2.56110057      -2.14190536 
H       0.14610108       1.29957891      -3.36525005 
H       2.39153035       0.85480443      -3.15913597 
H       0.81794630      -0.43556321      -1.63127808 
H      -0.66696168       0.42510830      -1.22590048 
