12
 energy: -21.522099687050 gnorm: 0.000400804043 xtb: 6.2.3 (830e466)
C         1.27627233793867    0.92671175631700   -2.72947150763230
C         0.35387936857662    0.66882065904524   -1.53733171755429
C         1.09731348918877    1.00816410214874   -0.24478872994849
O         1.91308651901115    2.20613102010871   -2.61652004437243
O         1.39200976590764    2.91900983195030   -1.53632255794479
O         1.74977527210058    2.28045733902229   -0.34855393698921
H         0.40971118328286    1.04055824362320    0.60713184448508
H         0.71787370053141    0.90027081670541   -3.67133456373692
H         2.08236262781032    0.18507549468144   -2.76236014311296
H         1.88688425619074    0.27402207727861   -0.04857491083895
H         0.04127874283596   -0.37292733616289   -1.52569675480587
H        -0.53093726337472    1.30379599528195   -1.62187697754888
12
Properties=species:S:1:pos:R:3 -21.525866662792=T gnorm:=T pbc="F F F" energy:=T 0.000569608102=T xtb:=T 6.2.3=T 830e466=T
C       1.43099015       0.93272005      -1.90671687 
C       0.02570767       0.56215139      -2.36094707 
C       1.53196373       1.09170317      -0.35904416 
O       1.83868936       2.21081597      -2.37462415 
O       1.52472663       3.09572036      -1.32898520 
O       1.98294533       2.41761953      -0.18374143 
H       0.55075493       0.93926447       0.10435028 
H      -0.00638661       0.51694933      -3.44599450 
H       2.17005354       0.22875658      -2.29959265 
H       2.27665276       0.44043955       0.09855994 
H      -0.24938310      -0.40718488      -1.95520867 
H      -0.68720438       1.31113448      -2.02375550 
