12
 energy: -21.522099690317 gnorm: 0.000400576234 xtb: 6.2.3 (830e466)
C         1.37225298089502    0.91623082724387   -2.70472944797100
C         0.26559211130109    0.89222297043765   -1.64964124395693
C         0.89774274829142    0.93889113251057   -0.25796899272133
O         2.33067052647553    1.94308096885440   -2.41797136490243
O         1.90028730187981    2.73037214460896   -1.34955116316614
O         1.89836911460035    1.96287088061804   -0.18445729005692
H         0.14262801270820    1.13730851623750    0.51018399641472
H         1.92670457450675   -0.02901256953831   -2.70523256081107
H         0.95962956718089    1.09740432132974   -3.70298796770857
H         1.40782474274618   -0.00454250718601   -0.03297771902617
H        -0.33351273667871   -0.00918470689041   -1.75748824870886
H        -0.37856894390654    1.76434802177399   -1.78266799738531
12
Properties=species:S:1:pos:R:3 0.000233766170=T 6.2.3=T gnorm:=T pbc="F F F" -21.604378029762=T energy:=T xtb:=T 830e466=T
C       1.30760852       1.01254607      -2.80572852 
C       0.15992397       0.93013355      -1.80082023 
C       0.92309647       1.37602498      -0.55158279 
O       2.05953347       2.13515802      -2.40828680 
O       1.86010976       2.31118436      -0.99459062 
O       1.52254433       0.25560854       0.02746185 
H       0.29545448       1.90202907       0.18547151 
H       1.91964351       0.10162217      -2.76070782 
H       0.98652032       1.20280202      -3.82989176 
H       2.22435058       0.54554491       0.62174603 
H      -0.23801534      -0.07201077      -1.68181251 
H      -0.63115008       1.63934707      -2.03674834 
