10
 energy: -20.588181015064 gnorm: 0.000738880539 xtb: 6.2.3 (830e466)
C         1.35094617689941    1.41214269527890   -3.01937538514181
C         0.65499384109643    0.67001495547272   -1.88710448847197
C         1.79381866061705    0.56382245818822   -0.87699920416762
O         2.39688373869003    2.13637915416610   -2.38664962261454
O         2.77915602878931    1.40253342164327   -1.24174967424852
O         1.87095371658965   -0.12675413904172    0.08927277813232
H         1.76978904011358    0.71538202185972   -3.75733738266319
H         0.73506021271517    2.15818567657620   -3.52082436051327
H         0.27878732272757   -0.31232913467274   -2.15904912856623
H        -0.15160873823818    1.24813289052939   -1.43257353174515
10
Properties=species:S:1:pos:R:3 6.2.3=T gnorm:=T pbc="F F F" -20.536855697345=T energy:=T 0.000620793823=T 830e466=T xtb:=T
C       1.07111502       0.82927001      -3.44281279 
C       0.84114916       0.18067132      -2.31137736 
C       1.64764482       0.30823140      -1.08147080 
O       1.65697367       2.65420318      -1.41506039 
O       2.08638396       1.52545407      -0.67656532 
O       1.96379810      -0.61540606      -0.38378932 
H       1.85637625       1.55878175      -3.54027333 
H       0.47787666       0.64065333      -4.32160768 
H       0.08258055      -0.58682823      -2.24027182 
H       1.79488181       3.37247924      -0.77916118 
