12
 energy: -21.522099687614 gnorm: 0.000400667304 xtb: 6.2.3 (830e466)
C         1.37669103929165    0.96715329451750   -2.71068866454819
C         0.28046267155941    0.84658920114865   -1.65131986647667
C         0.91691116911835    0.90109750266674   -0.26190379166935
O         2.26892179381625    2.04637143030333   -2.40341615051672
O         1.79486382909273    2.77906130185860   -1.31484995725664
O         1.84924606594992    1.98607611512457   -0.16822033340944
H         0.15532196772668    1.03153140452175    0.51435871414160
H         1.99077698301084    0.05990330272036   -2.73682117995079
H         0.94703405591462    1.14527442251283   -3.70229451451114
H         1.48860136797440   -0.01224379278660   -0.06224150713430
H        -0.25982905052757   -0.08889505185339   -1.77799872867801
H        -0.41950189292728    1.67810086926565   -1.76031401999037
12
Properties=species:S:1:pos:R:3 0.000744604912=T 6.2.3=T gnorm:=T pbc="F F F" -21.525865863282=T energy:=T xtb:=T 830e466=T
C       1.42676641       0.87448319      -1.88005330 
C       0.04066361       0.88334885      -2.51006785 
C       1.37004140       0.88709983      -0.32305049 
O       2.16852066       2.05024541      -2.17099103 
O       1.93744602       2.90325318      -1.07819471 
O       2.08350916       2.05199370       0.03261206 
H       0.33026059       0.93488300       0.02036963 
H       2.02890912       0.04696969      -2.26597138 
H       0.13274769       0.92683641      -3.59167229 
H       1.88528053       0.04558259       0.13848827 
H      -0.49715659      -0.01935722      -2.23333792 
H      -0.51748861       1.75468136      -2.17384101 
