10
 energy: -20.529558584894 gnorm: 0.000161667155 xtb: 6.2.3 (830e466)
C         1.76120167319319    1.73484414549778   -2.30144704080237
C         1.90090937472834    0.87651977443282   -1.06597037421565
C         1.64057788538637   -0.38990891216991   -1.04744798256178
O         0.54821430737199    2.44001453081942   -2.35759983114907
O         0.54409912660900    3.45698815270015   -1.35205124652765
O         1.46209778322906   -1.53836821492966   -1.04883591394966
H        -0.34304943667944    3.82672934274264   -1.44349894574703
H         2.60014974616152    2.43934594564784   -2.35197086489431
H         1.73097635279365    1.12295726393305   -3.20520269893291
H         2.10442318720630    1.39256797132589   -0.14315510121959
10
Properties=species:S:1:pos:R:3 6.2.3=T gnorm:=T -20.595321426204=T pbc="F F F" energy:=T 0.000811655377=T xtb:=T 830e466=T
C       1.17203110       1.08020017      -2.77604164 
C       1.50931224       0.71217991      -1.41881788 
C       1.75297916      -0.49938451      -1.00500671 
O       0.95196056       2.21411070      -3.13605104 
O       1.28138961       3.66354896      -0.73418313 
O       1.97075052      -1.57163504      -0.64205005 
H       1.07056882       3.41140720      -1.64846081 
H       1.55775155       4.58062437      -0.76215226 
H       1.12776040       0.24154564      -3.48847245 
H       1.55509604       1.52909260      -0.70594405 
