12
 energy: -21.572004747910 gnorm: 0.000988138934 xtb: 6.2.3 (830e466)
C         1.33680626340094    1.26198793661571   -2.67527593393042
C         1.01705024074438    0.13542239133000   -1.70362272354142
C         1.90783439901945    0.51714798316175   -0.52440007474103
O         1.75289880377179    2.34175503173944   -1.85040134163319
O         2.32771702298713    1.78305500855661   -0.68754575916123
O         2.22767782860901   -0.14563464833985    0.41123637572203
H        -1.28149273528007    2.51383312907968   -0.34448379174446
H         0.48077373388089    1.63279018681926   -3.23843126635402
H         2.14568615780684    0.98169830924740   -3.36314068967526
H        -0.76377772241523    3.02490492798009   -0.62269648474028
H        -0.02022568247710    0.15113193613252   -1.36498082964320
H         1.25806168995052   -0.85779219232720   -2.07197748055673
12
Properties=species:S:1:pos:R:3 0.000973042471=T 6.2.3=T gnorm:=T pbc="F F F" energy:=T -21.602395436833=T xtb:=T 830e466=T
C       1.35825999       2.74530183      -2.92322649 
C       0.26691754      -0.37997264      -0.62150671 
C       1.51341760       0.38397412      -0.29294828 
O       0.94557348       1.60256484      -2.21755400 
O       1.84106342       1.39658663      -1.12535200 
O       2.24635146       0.18465234       0.63180586 
H      -0.57953825       0.30166535      -0.65792927 
H       0.64109957       2.81950557      -3.73811703 
H       2.36901188       2.62422294      -3.32142884 
H       1.31044127       3.63994421      -2.29653513 
H       0.10598528      -1.14389215       0.13147646 
H       0.37042675      -0.83425305      -1.60440457 
