12
 energy: -21.539976396262 gnorm: 0.000418443860 xtb: 6.2.3 (830e466)
C         1.29411741294590    1.56490130803273   -3.39009675514232
C         0.51648126120260    0.33791598255156    0.41648015520740
C         1.49725151992740   -0.24176824911699   -0.19013341902391
O         0.32169558891798    1.79861075381767   -2.40229922224488
O         0.77591249132073    2.78041012887923   -1.48620828431615
O         2.38822092999231   -0.72799536415810   -0.75304515623832
H         0.87195805285946    2.28704533045841   -0.65077945398988
H         2.21088322216607    1.14838358736259   -2.96080572498991
H         1.52681488533323    2.47882266279906   -3.94197661264305
H         0.82946012877197    0.83699057623312   -4.05265357504818
H         0.59633312632978    0.64983380249062    1.43924572719581
H        -0.43994861976804    0.42695948065034   -0.06363767876636
12
Properties=species:S:1:pos:R:3 6.2.3=T gnorm:=T pbc="F F F" 0.000481502805=T energy:=T xtb:=T 830e466=T -21.604012732452=T
C       1.23735138       1.29425678      -3.29219509 
C       1.18811318       1.22898283       0.56024101 
C       1.46842784       0.18961302      -0.16453849 
O       0.17769715       1.20487428      -2.36085348 
O       0.50333185       2.35984408       0.17685130 
O       1.76671409      -0.78625581      -0.74853029 
H       0.23824911       2.24554607      -0.74947076 
H       1.97118392       0.49991587      -3.13335586 
H       1.71310097       2.25930258      -3.13088434 
H       0.86541222       1.24500941      -4.31894793 
H       1.51469940       1.24870923       1.58903154 
H      -0.25510111       0.35031166      -2.46325760 
