12
 energy: -21.540076913592 gnorm: 0.000275594505 xtb: 6.2.3 (830e466)
C         1.57436989412746    1.48598700367320   -3.10373247324897
C         0.64573383503502    0.23285733003894    0.42763774531350
C         1.42579843453705   -0.63788249891848   -0.10993468033450
O         0.88018209923171    2.69371735577962   -2.95600968601255
O         0.16484707593940    2.67915860203893   -1.71656118368034
O         2.13336884927355   -1.41094347447895   -0.61776651641034
H        -0.33478867628469    3.50402760593392   -1.76327989278383
H         2.31419694974590    1.34895515877442   -2.31014306307473
H         2.07264859457398    1.58694194034957   -4.06598169612912
H         0.89158220524553    0.63181307614059   -3.12145522056556
H         0.36258044384725    1.11418057764142   -0.11749678748500
H         0.25868029472772    0.11106732302686    1.41892345440897
12
Properties=species:S:1:pos:R:3 6.2.3=T gnorm:=T pbc="F F F" 0.000834367634=T energy:=T xtb:=T -21.604992401766=T 830e466=T
C       1.83489681       0.86790034      -2.86927169 
C       1.05720743       0.49709350      -0.68362180 
C       1.69632307      -0.62509084      -0.54611744 
O       1.07505852       1.34152817      -1.78511202 
O      -0.94315674       3.11027466      -0.57721131 
O       2.24492897      -1.64097902      -0.35780776 
H      -0.72265089       4.03832112      -0.67827117 
H       2.88576366       0.73738488      -2.58837999 
H       1.75613805       1.61998755      -3.65194278 
H       1.44632893      -0.08819586      -3.23626812 
H      -0.36359255       2.62169946      -1.17204907 
H       0.42195473       0.85995603       0.11025315 
