12
 energy: -21.539755057061 gnorm: 0.000661452957 xtb: 6.2.3 (830e466)
C         2.46817703482697    1.58231863226189   -2.29945891568319
C        -0.63809254601417   -0.09288002393477   -0.88252308326587
C         0.48407199443571   -0.46857208433834   -0.37470126671096
O         1.70199462912301    2.23172550542090   -1.31910094718666
O         0.54176839054589    2.81001327805209   -1.91047253646796
O         1.50245939565920   -0.81457655218194    0.07010737347500
H         0.53208739736456    3.70853513326912   -1.55342680689327
H         3.28111111271055    1.12881262067481   -1.73590614928116
H         2.86401404564342    2.29048229462785   -3.03431580957214
H         1.88916143685028    0.80660233524622   -2.80654807918015
H        -1.50353683412695   -0.72428238970412   -0.86694612426523
H        -0.73401605701861    0.88171125060613   -1.32259765496777
12
Properties=species:S:1:pos:R:3 6.2.3=T gnorm:=T pbc="F F F" 0.000796478074=T energy:=T -21.534686960991=T xtb:=T 830e466=T
C       2.54480337       1.09702491      -2.84379623 
C      -0.33605440       0.53194256      -0.62322692 
C       0.62593887      -0.11865082      -0.01420669 
O      -0.75355868       1.77596421      -0.29640075 
O      -0.03274478       2.79105398      -1.07356197 
O       1.40101387      -0.78703026       0.52109204 
H      -0.49244520       3.59920011      -0.81539844 
H       3.13207675       0.65906062      -2.04697075 
H       3.19573424       1.65230662      -3.50657332 
H       2.05133208       0.31079198      -3.40104659 
H      -0.75189562       0.06328130      -1.51304121 
H       1.80499950       1.76494478      -2.42275918 
