7
 energy: -12.217417417309 gnorm: 0.000330520098 xtb: 6.2.3 (830e466)
C         1.49960325006652    1.66916044894485   -3.37493296342863
O         1.20276108701478    2.83917766632184   -2.66431134176013
O         0.42718550579611    2.49529268698036   -1.51300349716933
H         0.16790554430153    3.36246316974978   -1.17666725483042
H         2.07713551317697    0.97062267373147   -2.76305995944435
H         2.09694812224173    2.01287132189258   -4.21733989345367
H         0.58906097740237    1.17890203237913   -3.73187508991346
7
Properties=species:S:1:pos:R:3 6.2.3=T gnorm:=T 0.000561378106=T pbc="F F F" -12.252330073081=T energy:=T xtb:=T 830e466=T
C       2.04097880       1.64936660      -3.83859331 
O       1.32773025       2.60711862      -3.77864958 
O       0.03991397       2.30862309      -1.17948719 
H      -0.47145162       3.04722960      -0.84479918 
H       2.09659303       0.90462598      -3.03067473 
H       2.68905935       1.45078503      -4.70603937 
H       0.33777622       2.56074109      -2.06294665 
