12
 energy: -21.539416407317 gnorm: 0.000532739008 xtb: 6.2.3 (830e466)
C         1.73685554763095    1.48453843827203   -2.87204713815361
C         0.08010114810940   -0.05319385121400    0.07618322775484
C         1.22009454454440   -0.64457805312504    0.00219716602563
O         0.56036782902401    2.08679172741147   -2.39153092664945
O         0.86424317717034    3.29928530133349   -1.71937137925161
O         2.25606847887188   -1.16996754145924   -0.08501349490671
H         0.42803098249567    3.98154462907525   -2.24956940831172
H         2.43196837638651    1.26629045169194   -2.05804526856999
H         2.22919832021301    2.11075034074112   -3.62212622913225
H         1.39273997919503    0.55707625795935   -3.32558177657217
H        -0.67492623588352   -0.36251970864294    0.76992671523926
H        -0.13554214775727    0.78386200795617   -0.56081148747407
12
Properties=species:S:1:pos:R:3 6.2.3=T gnorm:=T pbc="F F F" energy:=T 0.000562194559=T -21.513801637857=T xtb:=T 830e466=T
C       0.46958640       0.58722355      -2.67902962 
C       0.27568997      -0.22872100      -1.42339421 
C       1.18921514      -0.32864977      -0.51052760 
O       0.03492604       1.91837811      -2.54816246 
O       0.94993148       2.62952509      -1.71167892 
O       2.02516043      -0.47325661       0.28124462 
H       0.52088238       3.49058832      -1.62355613 
H       3.44676679       2.80862863       0.17110263 
H       1.52078934       0.57190081      -2.98737779 
H      -0.16141313       0.20200159      -3.48267862 
H      -0.71398744      -0.59773711      -1.21684074 
H       2.83165260       2.75999838      -0.30489116 
