12
 energy: -21.540854911701 gnorm: 0.000753729707 xtb: 6.2.3 (830e466)
C         0.84307448824717    1.33564291994919   -3.18127538511852
C        -0.27545296834703    1.08715334241755   -2.53198514499131
C         1.70531047113055    0.28014551847278   -0.01120120542468
O         1.09397831602331    1.39030622344369    0.35230834288238
O         1.67109474047843    2.54746770759114   -0.19389322362595
O         2.66034097132921    0.21570980178379   -0.72828945200884
H         2.37435769191158    2.19453299135964   -0.78633626220497
H         1.16843976813433    2.34319798317794   -3.38581297250178
H         1.48676653907305    0.54705745732489   -3.53583663830809
H         1.18127178140721   -0.55946973544796    0.46602993639320
H        -0.60557757192211    0.08095154621659   -2.32761667472951
H        -0.91440422746583    1.87710424371105   -2.17200132036206
12
Properties=species:S:1:pos:R:3 6.2.3=T gnorm:=T pbc="F F F" energy:=T -21.525571002239=T 0.000421507544=T 830e466=T xtb:=T
C       0.89566476       0.80413358      -2.95983964 
C       0.83273383      -0.30509397      -2.22638856 
C       1.45344998      -0.41407274      -0.90620383 
O       0.19703125       3.20743957      -0.60444458 
O       1.61873722       3.21900521      -0.64145201 
O       2.01203979       0.47554184      -0.30827302 
H       1.84252888       2.28524832      -0.43593892 
H       1.41076867       1.68115958      -2.60313440 
H       0.43461945       0.87127453      -3.93075156 
H       1.38060723      -1.42107824      -0.45623285 
H       0.31979255      -1.18784143      -2.58112551 
H      -0.00877360       4.12408376      -0.38212513 
