6
 energy: -15.251222065665 gnorm: 0.000770420879 xtb: 6.2.3 (830e466)
C         2.07511982889023    0.81313961617227    0.07800613707568
O         2.63511091995628    1.97251359036022   -0.25258248159796
O         1.81478623341714    3.10069166541875   -0.26710258945932
O         2.69292093491034   -0.19775581110267    0.12318771151771
H         0.89574107382438    2.79896705943006   -0.14080818694015
H         0.98312100900163    0.89404387972137    0.29629940940404
6
Properties=species:S:1:pos:R:3 6.2.3=T gnorm:=T pbc="F F F" energy:=T 0.000592218815=T xtb:=T 830e466=T -15.382876433934=T
C       3.13916056       0.79425151      -0.14738205 
O       3.63487149       1.75890265      -0.51219666 
O       0.84280085       2.10859247       0.11060798 
O       2.69212404      -0.19603860       0.20912638 
H       0.86134985       3.04706406      -0.09162855 
H      -0.07350679       1.86882791       0.26847291 
