6
 energy: -6.271260469270 gnorm: 0.000281316153 xtb: 6.2.3 (830e466)
C         0.46932072391200    0.57591387582656   -3.58405191423564
C        -0.02399107527416    0.73328471183280   -2.37382457919649
H         1.13112037943214   -0.23869462571544   -3.82983292677677
H         0.23663771886027    1.25451862079228   -4.38861957397377
H         0.20955636410741    0.05529003608255   -1.56899365909669
H        -0.68494411103766    1.54849738118125   -2.12776734672065
6
Properties=species:S:1:pos:R:3 0.000511598409=T 6.2.3=T gnorm:=T pbc="F F F" -6.190503192368=T energy:=T xtb:=T 830e466=T
C       0.00552421       1.42180637      -4.03270982 
C      -0.42216171       1.52437963      -2.92249252 
H       0.93702848      -0.68643976      -2.19467719 
H       0.38429916       1.32027399      -5.00638960 
H       1.22791649      -1.27305306      -1.77108085 
H      -0.79490662       1.62184283      -1.94574001 
