12
 energy: -21.533930633743 gnorm: 0.000879881565 xtb: 6.2.3 (830e466)
C         1.12604109329389    0.42143743935419   -3.02340430232693
C        -0.02670081827523    0.19324466503859   -2.42840026005246
C         2.04912292904384    1.16522548007278   -0.16350761206685
O         1.82035739537006    2.43158132372230   -0.53172959416705
O         0.48810191536772    2.82965624315841   -0.29105245413509
O         3.11884035814122    0.66639010461032   -0.29095593796746
H         0.45915121687336    3.72066489363099   -0.67187209696552
H         1.91178077870093   -0.31507247330921   -3.04895346034474
H         1.34207285611846    1.35719147485172   -3.51322377802794
H         1.15314709945849    0.68521074266871    0.26677902798308
H        -0.23899460943308   -0.74515993560654   -1.94114780557122
H        -0.81383021466007    0.92954004180763   -2.39842172635800
12
Properties=species:S:1:pos:R:3 6.2.3=T gnorm:=T pbc="F F F" -21.626315138637=T energy:=T xtb:=T 830e466=T 0.000566579996=T
C       1.41424431      -0.28677992      -2.25223061 
C       0.12088795      -0.02849661      -2.30957091 
C       2.04293148       1.12420844      -0.48873422 
O       2.34908922       0.50198698      -1.62336126 
O       0.26433194       3.14729763      -1.29151621 
O       2.74817325       1.94788664       0.01082808 
H       0.78138192       3.47397465      -0.55033190 
H       1.88493239      -1.13295531      -2.73375600 
H       0.54182874       3.64821855      -2.06200776 
H       1.09003121       0.78255608      -0.03879850 
H      -0.54186855      -0.69084787      -2.83442510 
H      -0.30687386       0.85286074      -1.86198563 
