12
 energy: -21.536420344488 gnorm: 0.000679056997 xtb: 6.2.3 (830e466)
C         0.77797342246289    1.34076665725237   -3.37051722591390
C        -0.41311741351435    1.75080791398447   -2.97209036327644
C         2.65163911825501    0.43389694824842    0.63463644575072
O         1.98527967669829    0.89711542639824   -0.42637443978848
O         0.59713432276574    0.99246702109488   -0.19513042836568
O         3.83160386722638    0.29699930754057    0.61690618443541
H         0.25479236577094    1.23067570635877   -1.08648791989693
H         1.61082121797021    2.01663565531375   -3.47105371087088
H         0.97619431178078    0.30898540726175   -3.61106168272259
H         1.98511451150934    0.20644807203432    1.48674634087424
H        -1.25295336436502    1.07816803072633   -2.89109397676215
H        -0.61539203656081    2.78694385378570   -2.75036922346301
12
Properties=species:S:1:pos:R:3 0.000880494556=T 6.2.3=T gnorm:=T pbc="F F F" energy:=T xtb:=T -21.522966002150=T 830e466=T
C       0.92572435       0.93659893      -3.33472073 
C       0.24836776       0.45096679      -2.31494584 
C       2.39100438       0.59806868       0.43159145 
O       2.06304269       0.51344927      -0.86029845 
O       0.68704373       0.20450381      -1.04726359 
O       3.50275118       0.83030326       0.77752435 
H      -0.23008721       3.19913746      -1.73838953 
H       1.96433093       1.19941086      -3.24847154 
H       0.44830804       1.08198865      -4.28403219 
H       1.52892881       0.42754755       1.10291133 
H      -0.79469266       0.16578462      -2.33742954 
H      -0.34563199       3.73215014      -1.18236572 
