12
 energy: -21.536385013750 gnorm: 0.000426956375 xtb: 6.2.3 (830e466)
C         0.54334625328072    1.45736761768036   -3.39527459374900
C        -0.62274936565774    1.15347744981280   -2.85386203241987
C         2.82539562244603    0.55979980664958    0.59040756642768
O         2.04877047843248    0.71530771697425   -0.48547710970074
O         0.99212374502466    1.62357856201684   -0.26339126016141
O         3.76236058476810   -0.17054039329534    0.58260717832753
H         0.52277033548713    1.61176147739621   -1.12811146727320
H         0.79455301637495    2.46624105101762   -3.68153463120949
H         1.29871194367000    0.71072826860798   -3.57879909068768
H         2.48955070923613    1.17489327937663    1.44462856057388
H        -1.38643286055542    1.89605152342498   -2.68302675426452
H        -0.87908046250662    0.14113364033795   -2.58396636586211
12
Properties=species:S:1:pos:R:3 6.2.3=T gnorm:=T -21.621802053141=T pbc="F F F" energy:=T xtb:=T 830e466=T 0.000751173323=T
C       0.18108325       2.12613128      -2.23717071 
C      -0.17258576       0.87441299      -2.50313138 
C       2.62101880       0.13194001      -0.24550432 
O       2.45892165      -0.17717192      -1.52741416 
O       0.12414569       2.63556188      -0.98146672 
O       3.59538415      -0.13850547       0.38158419 
H       0.38860596       3.56043711      -0.96595077 
H       0.55436967       2.78375722      -3.01432233 
H       1.60373162       0.13180155      -1.89447252 
H       1.75827583       0.67551375       0.19578426 
H      -0.13307496       0.49358835      -3.50610524 
H      -0.59055590       0.24233325      -1.73763028 
