12
 energy: -21.536432456170 gnorm: 0.000918200301 xtb: 6.2.3 (830e466)
C         0.63570658511802    1.34469090638448   -3.36198696725028
C        -0.61421124829755    1.30102478414741   -2.93604482651391
C         2.83031866181379    0.65687294505982    0.60159552989702
O         2.09385959011189    0.86301570348463   -0.49476498054211
O         0.80021215709881    1.33964752028929   -0.19521780282682
O         3.94652266111816    0.25581625419888    0.53503994091506
H         0.38326114989783    1.38653918576789   -1.08569642727823
H         1.14202986326998    2.27754560513491   -3.55121658010823
H         1.20998160374590    0.45051909530304   -3.54302014754913
H         2.28290194122036    0.90101240778520    1.53052341295461
H        -1.12657498643335    0.36789176113615   -2.76333569428190
H        -1.19490797869351    2.19541383127964   -2.77157545735590
12
Properties=species:S:1:pos:R:3 6.2.3=T gnorm:=T pbc="F F F" -21.519996606265=T energy:=T 0.000642265479=T xtb:=T 830e466=T
C       0.16307093       0.63154735      -2.20754184 
C      -1.11419226       0.83000647      -2.46884210 
C       2.55869892       0.70844653       0.32694089 
O       2.02892447       0.47461592      -0.87850735 
O       0.64133234       0.76080440      -0.92919286 
O       3.71129328       0.52565322       0.54469902 
H       2.12581814       3.16176763      -2.79607040 
H       2.84923388       2.98346266      -2.57382513 
H       0.90802111       0.36243100      -2.94254982 
H       1.81291117       1.07889062       1.05375102 
H      -1.48479722       0.72945938      -3.46995085 
H      -1.81121476       1.09290482      -1.69461058 
