12
 energy: -21.533925739164 gnorm: 0.000723209121 xtb: 6.2.3 (830e466)
C         1.11424030241958    0.67059616319393   -3.14850281851281
C         0.29547536872379    1.67336253843469   -2.90632523185239
C         2.05066659482575    0.48720242902214   -0.23864956095719
O         1.54156987636550    1.66225170579706    0.15119328225311
O         0.15468755436427    1.59001883718094    0.40612237547168
O         3.20412717750770    0.36490857233196   -0.49205995631005
H        -0.07880103473219    2.51488594360369    0.57997473961502
H         2.16541373332984    0.82027987184957   -3.32912947837688
H         0.77069115769249   -0.35077740391392   -3.18086818781926
H         1.28746829477448   -0.30955640152895   -0.27405758469089
H        -0.75693864013889    1.52231991311183   -2.72566774594396
H         0.64048961486721    2.69443783091740   -2.87762983287648
12
Properties=species:S:1:pos:R:3 6.2.3=T gnorm:=T pbc="F F F" energy:=T -21.626694399454=T xtb:=T 830e466=T 0.000595592624=T
C       1.11435498       0.53290016      -3.75295978 
C       0.95258498       0.37960016      -2.45185259 
C       1.69535253       0.62828903      -0.25813328 
O       1.89251579       0.81624771      -1.56042665 
O       0.10824394       2.68382233      -0.13400247 
O       2.45996158       1.01038122       0.57449221 
H       0.32804624       2.79280537       0.79485780 
H       1.99427654       1.00240082      -4.15380431 
H       0.36970701       0.18597399      -4.44338465 
H       0.77049044       0.05990166      -0.02672070 
H       0.07892176      -0.08765867      -2.00865536 
H       0.62463421       3.33526623      -0.61501021 
