12
 energy: -21.525543540011 gnorm: 0.000931296183 xtb: 6.2.3 (830e466)
C         2.48329165493796    1.30537691466926   -1.82349772756650
C         2.24302068173730    0.48136344851599   -0.80582753636162
C         1.05264907477408   -0.36633415399467   -0.74336144619571
O        -0.66999347537738    2.01432522610122   -2.79212828509930
O        -0.46587985047928    2.86551537377723   -1.67162962974540
O         0.11225110921620   -0.32501522275937   -1.50220025569415
H        -1.02271892044301    3.62392029869410   -1.88827373657798
H         3.36220365021159    1.92631095767247   -1.85861002790927
H         1.79617341774394    1.38614568730449   -2.64994305113446
H         1.05812159024688   -1.09069940770622    0.09155241951541
H        -0.49025028391458    1.12570838117609   -2.41535800471383
H         2.93033135134690    0.39338249654998    0.02365728148355
12
Properties=species:S:1:pos:R:3 6.2.3=T gnorm:=T pbc="F F F" energy:=T 0.000721782746=T xtb:=T 830e466=T -21.632115774414=T
C       3.32632690       1.17650627      -1.72406573 
C       2.35955453       1.89090896      -1.16502615 
C       0.97071599       1.37661227      -1.11128634 
O      -1.96689940      -0.26630947      -2.64360830 
O       0.05804727       2.19793292      -0.57117395 
O       0.64415123       0.29077908      -1.51557730 
H       0.42575374       3.04847773      -0.29869520 
H       4.34299162       1.52463152      -1.78303314 
H       3.10338503       0.21030091      -2.14659089 
H      -2.34146602      -0.90165207      -2.03147698 
H      -1.07923126      -0.07489983      -2.31143674 
H       2.54587037       2.86671172      -0.73364929 
