12
 energy: -21.526398458445 gnorm: 0.000894959937 xtb: 6.2.3 (830e466)
C         2.28097871808013    1.64061911091858   -0.91463868915978
C         2.21818963965580    0.38665800144463   -0.47250752303918
C         1.10382837665832   -0.50371234697734   -0.79843083465477
O        -0.11495334668244    2.86128926059186   -2.82039958929905
O        -0.93065034616079    1.75763279948654   -3.19693521997325
O         0.16533204534794   -0.23346549564817   -1.50996365155955
H        -0.59273067151106    1.04009753474100   -2.62278710391772
H         1.50487730088939    2.05439614601759   -1.53797367900246
H         3.10456348486149    2.28971777744401   -0.66823505887676
H         1.17270782579385   -1.50285663449685   -0.32880761595192
H        -0.51460501105569    3.58293677772630   -3.32029200394532
H         2.99175198412305   -0.03331293124898    0.15527096937870
12
Properties=species:S:1:pos:R:3 6.2.3=T gnorm:=T pbc="F F F" 0.000788070708=T energy:=T -21.513428628983=T xtb:=T 830e466=T
C       2.31369541       1.57420403      -1.47515786 
C       1.34223749       1.91495109      -0.64855449 
C       0.66052819      -0.78322075      -1.75122668 
O      -0.06872554       2.61228273      -2.35402256 
O       0.13854944       2.45825384      -0.95329641 
O       1.44913020      -1.57163923      -1.32172589 
H       0.68478915      -0.41718642      -2.78964160 
H       2.22624756       1.73014346      -2.53478526 
H       3.22251023       1.14530137      -1.10219672 
H      -0.17360766      -0.38805979      -1.14904722 
H      -0.77997357       3.26689694      -2.38177154 
H       1.37390910       1.79807270       0.42572622 
