12
 energy: -21.526357047481 gnorm: 0.000964733832 xtb: 6.2.3 (830e466)
C         2.35450329100434    1.67893141334414   -1.18923850941388
C         2.40940710744513    0.43011340103708   -0.73138300479606
C         1.25874638858556   -0.47239614883591   -0.77037067998217
O        -1.05031186797402    1.63842338454780   -2.98402922423116
O        -0.46744332608690    2.83518995462500   -2.48094666896271
O         0.18640487234369   -0.23397041467857   -1.27261259281423
H        -1.02816938856474    3.51348882824018   -2.87698353024922
H         1.44747763543248    2.08283905213800   -1.61041170240852
H         3.20765673817856    2.33541246407099   -1.15120708447520
H         1.43605941007861   -1.44957116115430   -0.28385290955004
H        -0.67715754669852    0.95624388716618   -2.38814538977612
H         3.31213668625584    0.02518533949907   -0.29652870334145
12
Properties=species:S:1:pos:R:3 0.000453239120=T 6.2.3=T gnorm:=T pbc="F F F" energy:=T -21.629763327610=T xtb:=T 830e466=T
C       2.91481227       2.78634349      -1.51375990 
C       1.90111046       2.04598691      -1.10828084 
C      -0.42684101      -1.20599658      -1.53210320 
O      -1.06831450      -0.08284177      -1.81616731 
O       0.62824397       2.11398500      -1.59587366 
O      -0.90270259      -2.29197500      -1.63720704 
H       0.57784470       2.80197677      -2.27276435 
H       2.80533194       3.52591164      -2.29005515 
H       3.88884307       2.67519484      -1.07929893 
H       0.61806289      -1.04923017      -1.18113640 
H      -0.52698921       0.72005939      -1.67801637 
H       1.97990800       1.30047547      -0.33104684 
