12
 energy: -21.518098623510 gnorm: 0.000725801367 xtb: 6.2.3 (830e466)
C         1.14652008127676    0.39401249026582   -2.04070271168971
C         0.99277842984973   -0.14531354943586   -0.83510726756493
C         0.79371153909423   -1.58982074304643   -0.66076156803344
O         1.05489885782755    3.72716584985252   -2.44181976925726
O         1.21875080456402    4.90927003737095   -1.67123950263166
O         0.72608327765664   -2.39676403959992   -1.55249257622554
H         2.05288063623538    4.74451054066747   -1.21417865101060
H         1.12746409564176   -0.23801703136869   -2.91480693511606
H         1.29089897263871    1.45037441350403   -2.19422480885364
H         0.70330344027721   -1.90643181708327    0.39749007465096
H         0.27496411721366    3.93775483876671   -2.97204807188755
H         1.00725574772662    0.45324901010039    0.06418178761876
12
Properties=species:S:1:pos:R:3 -21.622093761731=T 6.2.3=T gnorm:=T pbc="F F F" 0.000341159151=T energy:=T xtb:=T 830e466=T
C       1.42092453       1.84120308      -0.73759638 
C       1.31697378       0.60264310      -0.21941098 
C       0.86028774      -0.51370913      -1.00851547 
O       0.46972819       1.78247129      -3.82932087 
O       1.84346023       2.88186805      -0.01564158 
O       0.52602065      -0.48731951      -2.17717460 
H       1.85806464       3.69004746      -0.54221661 
H       0.44331423       0.91381062      -3.39192119 
H       1.15883254       2.01980492      -1.77340736 
H       0.82850021      -1.46909897      -0.45438193 
H       0.08459743       1.65562823      -4.69728564 
H       1.57880583       0.42264087       0.81116261 
