12
 energy: -21.523318013777 gnorm: 0.000299314064 xtb: 6.2.3 (830e466)
C         3.68241080864254    0.62887062826816   -1.58472299330197
C         2.70273794042743   -0.02168636351776   -0.96307002327007
C         1.31194662048881    0.42920214259914   -1.05303892190264
O        -1.81715340324524    2.01809102807878   -1.60310885347566
O        -2.13879246073252    3.06919890103894   -2.50502585535046
O         0.93161753840298    1.37612931985611   -1.69941650931798
H        -3.08567622698079    3.17841576572165   -2.35498219353959
H         4.71139918550219    0.31805661340494   -1.52930641491191
H         3.46011707854668    1.50528481746605   -2.17268145030724
H         0.59574882012152   -0.17331255751969   -0.46543636373521
H        -0.85359237096740    1.91378073568045   -1.73982168523559
H         2.88853646979447   -0.90192103106888   -0.36527873565708
12
Properties=species:S:1:pos:R:3 6.2.3=T gnorm:=T pbc="F F F" 0.000923000755=T -21.552110631718=T energy:=T xtb:=T 830e466=T
C       2.70853206       1.19222706      -1.80185747 
C       1.82485866       0.56538757      -1.05015937 
C       0.33089870       0.66448734      -1.24724323 
O      -0.11018290      -0.49422938      -1.86742646 
O      -0.10001953       2.95103812      -1.36909431 
O      -0.06131761       1.74226557      -2.09000390 
H       0.68236326       3.43918063      -1.66797924 
H       3.76708020       1.08901209      -1.63867992 
H       2.40607805       1.82465190      -2.62139116 
H      -0.16074749       0.81418416      -0.26431286 
H      -1.01607791      -0.35582941      -2.17176610 
H       2.11783452      -0.09226566      -0.24597599 
