12
 energy: -21.526382756369 gnorm: 0.000246528008 xtb: 6.2.3 (830e466)
C         2.28708006206545    1.12801875787503   -0.73020056579749
C         1.87449724342652   -0.13591497882925   -0.66168391951764
C         0.69526167802698   -0.61560075567217   -1.38271840655284
O         0.57165281863363    3.34825938261356   -2.47116085442304
O        -0.71087834981628    2.75041292193037   -2.62424338425720
O        -0.06227166729841    0.06346595712356   -2.03456076276627
H        -0.52364512875192    1.80367829062109   -2.45813798324778
H         3.16014162242512    1.47017926811443   -0.20038896246872
H         1.76287092413230    1.85777000127670   -1.32690029215023
H         0.52328676466892   -1.70410929614282   -1.29150642990351
H         0.40990720018781    4.24741879668272   -2.78144743089949
H         2.40140683229850   -0.87359834559452   -0.07275100801729
12
Properties=species:S:1:pos:R:3 -21.533846709665=T 6.2.3=T gnorm:=T pbc="F F F" energy:=T xtb:=T 830e466=T 0.000749713064=T
C       2.57601735       1.65670401      -1.07897970 
C       1.77348738       1.57746189      -0.03786301 
C       0.02251796      -0.30449554      -2.49457795 
O       0.15677350       0.94449506      -2.95639104 
O      -0.62353582       1.87391045      -2.23923129 
O       0.60283740      -1.21504343      -2.98737886 
H      -0.14409097       2.70679746      -2.36753130 
H       2.80575538       2.59669892      -1.55554508 
H       3.04670652       0.78594647      -1.50492778 
H      -0.67385621      -0.36376230      -1.63911830 
H       1.29756553       2.44552219       0.39001182 
H       1.54913200       0.63574484       0.43583249 
