12
 energy: -21.517836008346 gnorm: 0.000787315210 xtb: 6.2.3 (830e466)
C         2.41187402566801    1.26826455823626   -2.01291704806924
C         1.94440221231227    0.80016654637181   -0.85970838180358
C         1.24129926242464   -0.49074659621902   -0.78939726476417
O        -0.63165226625939    1.92507352859749   -2.53290660861851
O        -0.55848238165373    2.83701317539592   -1.44640080814585
O         1.16962082146903   -1.29150825281534   -1.68315412401897
H         0.36154201774806    2.73086721947796   -1.16457733439546
H         2.92249231480681    2.21329141951826   -2.09815161777905
H         2.27572141175519    0.69615384215541   -2.91600361786092
H         0.76217499691131   -0.68430687836039    0.19052733568142
H        -1.55930086885135    1.99377817862693   -2.79420380115408
H         2.04969845366994    1.34205325901493    0.07099327092952
12
Properties=species:S:1:pos:R:3 6.2.3=T gnorm:=T 0.000824992711=T pbc="F F F" energy:=T -21.633837987660=T 830e466=T xtb:=T
C       1.51774192       1.46646404      -2.44395343 
C       1.31256049       1.16828815      -0.93888524 
C       0.89029910      -0.27644529      -0.77693433 
O       0.31405173       1.37321763      -3.14912754 
O       0.28937630       1.98674634      -0.41701431 
O       1.62739792      -1.21067365      -0.89277344 
H       0.58030534       2.90597652      -0.42357786 
H       1.94659155       2.47753087      -2.54653720 
H       2.21002086       0.74244180      -2.87690586 
H      -0.18483807      -0.38625315      -0.55089782 
H      -0.38036443       1.77194798      -2.60518048 
H       2.26624729       1.32085877      -0.41411249 
