12
 energy: -21.525520316244 gnorm: 0.000767556268 xtb: 6.2.3 (830e466)
C         2.32522462864111    0.78568443338931   -2.14147557864121
C         2.30614175849690    0.76364589876967   -0.81107233406202
C         1.14127136749675    0.31404218851156   -0.05003115217111
O        -0.26363222512515    2.73466496027064   -2.36220762702665
O        -0.89886785178244    1.50990477090157   -2.70737936710263
O         0.04235481340132    0.09329269329964   -0.50348723488332
H        -0.67889105627892    0.93699063079501   -1.94137875414881
H         3.18782493010429    1.11731186845520   -2.69386527439582
H         1.47048525600822    0.46898301025912   -2.71631853203512
H         1.33215484399808    0.17835227879856    1.03039294506660
H        -0.73921511554898    3.37049159224842   -2.91079622174177
H         3.16424865059155    1.06652567430410   -0.22829086885471
12
Properties=species:S:1:pos:R:3 0.000610059348=T 6.2.3=T gnorm:=T pbc="F F F" energy:=T xtb:=T -21.631359410146=T 830e466=T
C       1.97535743       1.03824984      -2.44032074 
C       1.70450017       2.33251325      -2.55702262 
C      -0.01242242      -0.43809911       0.19629074 
O       0.51784087       2.77891308      -3.03914812 
O       0.60470285       0.72427885       0.19074478 
O      -0.05737278      -1.21331069      -0.71163914 
H       1.03265318       0.89160640      -0.68677325 
H       2.93161860       0.70965628      -2.07865832 
H       1.27894524       0.29057996      -2.77957010 
H      -0.49272151      -0.60273801       1.17495018 
H       0.48655493       3.73946917      -3.05352567 
H       2.41944343       3.08877096      -2.25123773 
