12
 energy: -21.524890759233 gnorm: 0.000383488729 xtb: 6.2.3 (830e466)
C         3.58816426270570    0.69916589519613   -2.02232085150872
C         2.68129342639105    0.65429336074079   -1.05027673103013
C         1.25821722723577    0.87233475821345   -1.32339713666450
O        -1.91347976161520    1.75879306695909   -2.17614486533655
O        -1.80932247380037    1.84724060898381   -0.75887670561950
O         0.78789462453251    1.06251792702198   -2.42168767730115
H        -2.68571153028307    2.17099681871713   -0.51650439758297
H         4.63900007696626    0.54832639232128   -1.84358444531938
H         3.28175565627261    0.89536668997273   -3.03784282199372
H         0.60963490494369    0.85742686550098   -0.43107135278823
H        -1.00035536143392    1.50939839524060   -2.43205998091714
H         2.95231894808864    0.46414922113009   -0.02203303394618
12
Properties=species:S:1:pos:R:3 6.2.3=T gnorm:=T -21.483037418006=T pbc="F F F" energy:=T xtb:=T 830e466=T 0.000539933110=T
C       3.02261018       0.85128376      -1.92396015 
C       2.29911717       0.96044303      -0.82681040 
C       0.80431955       0.92505877      -0.77457539 
O      -1.58874708       2.08538370      -2.13385610 
O      -1.10281574       0.77655348      -2.09394236 
O       0.28733078       0.77164418      -2.08872285 
H       0.42342715       1.85986708      -0.33722334 
H       4.09767370       0.88757763      -1.89544520 
H       2.56127288       0.72602789      -2.88735740 
H       0.46933034       0.08952812      -0.14360231 
H      -1.64180241       2.31910649      -3.07468379 
H       2.75769347       1.08753587       0.14437929 
