12
 energy: -21.568038817164 gnorm: 0.000542128681 xtb: 6.2.3 (830e466)
C         1.77911927768223    0.86558161897511   -2.54874416802018
C         1.44126741156046    1.34029666639470   -1.13331336579605
C         0.92222304061362    0.19032940496747   -0.28594489096916
O         0.57281781722754    2.44848509861227   -1.09880237372440
O        -0.71204767805390    2.08991457951291   -1.60725304318518
O         1.43232757665310   -0.89003670479976   -0.22789504738905
H        -0.96610441058534    2.87192415550558   -2.11588405436777
H         2.25752265472710    1.66269346056313   -3.11158285184930
H         2.44604649195570    0.01151235084241   -2.48436471968048
H         0.00909045943600    0.44628280009498    0.27991620684962
H         0.86667846906406    0.56407600705842   -3.05821204070806
H         2.33995888971948    1.73904056227272   -0.64380965115999
12
Properties=species:S:1:pos:R:3 6.2.3=T gnorm:=T pbc="F F F" 0.000668117644=T energy:=T xtb:=T 830e466=T -21.525517988617=T
C       2.40401914       1.09575249      -2.08547410 
C       2.30332629       0.81608133      -0.78837136 
C       1.17752050       0.06542607      -0.23303931 
O      -0.83745557       1.48089995      -2.77782864 
O      -0.49776095       2.67627060      -2.08646545 
O       0.16358074      -0.22703955      -0.82286751 
H      -0.99296191       3.34005470      -2.58149891 
H       1.64837777       0.77588874      -2.78410075 
H       3.23769341       1.64614157      -2.48702727 
H       1.31305780      -0.23978568       0.82043308 
H      -0.59404627       0.78887164      -2.12591410 
H       3.06354904       1.12153814      -0.08373567 
