13
 energy: -23.857992551408 gnorm: 0.000889848568 xtb: 6.2.3 (830e466)
C         9.49274922497442    1.11285965597108    1.93368804032811
C        10.56281461348908    2.20225965857358    1.69947301502775
C         8.21458155035682    1.33931215479891    1.13823941937720
C         9.88256567929277    2.26268778632469    3.86050870170639
O         9.23203048938885    1.21762155891207    3.32785106547389
O        10.65918780296169    2.86723060843797    2.94282893403473
O         9.79232097665601    2.60574928083882    4.99109154127539
H         9.88387274328098    0.10687252803490    1.74601582896522
H        10.26069586417264    2.92381498517470    0.93592826639674
H        11.54230883892627    1.78809026451981    1.44324098210348
H         7.81515129106025    2.33042488396319    1.34158828530540
H         8.42099886833376    1.24475683608009    0.07559985354124
H         7.47051205710649    0.60092979837018    1.42393606646447
13
Properties=species:S:1:pos:R:3 energy:=T -23.831986225527=T gnorm:=T 0.000294137945=T xtb:=T 6.2.3=T (830e466)=T pbc="F F F"
C        9.34511878       1.00448768       2.19339195
C       11.01633447       2.46610702       1.73124012
C        8.02321589       1.32265920       1.49292845
C        9.56321058       1.96123862       3.36761520
O       10.48562930       1.22366189       1.38148593
O       10.57468061       2.77782712       3.03190080
O        8.95916477       2.01867583       4.39228237
H        9.35941907      -0.03766166       2.52711972
H       10.68098155       3.26381693       1.04465471
H       12.11062606       2.40796024       1.71940415
H        8.01176380       2.35409877       1.14747140
H        7.89397860       0.66502969       0.63781834
H        7.20566652       1.17470869       2.19267687
