13
 energy: -23.802945382378 gnorm: 0.000560038035 xtb: 6.2.3 (830e466)
C        10.38873843386244    1.92550001719670    1.81598901479296
C         8.21364139509578    1.31231822359689    0.65381918145163
C         9.16164036063487    1.00658072033073    1.77688046975856
C        10.27848770358113    2.39843619039159    4.08058911510049
O        11.00686937343258    1.89443203123165    3.09586032713155
O         8.99810397081885    0.14111724506377    2.58988358672256
O         9.21354431285629    2.92935834694490    3.96698953845534
H        10.82447870766914    2.27487914473521    5.02863923901091
H        11.13862457383527    1.56486724311656    1.10847657176622
H        10.09381368936258    2.94944112921209    1.56331581025049
H         7.55720218714159    0.46470224267521    0.47698561815473
H         8.74935696630591    1.57703907567809   -0.25367712749899
H         7.60490832540356    2.16401838982656    0.95642865490339
13
Properties=species:S:1:pos:R:3 energy:=T -23.818176355568=T gnorm:=T 0.000423995856=T xtb:=T 6.2.3=T (830e466)=T pbc="F F F"
C       10.20356924       2.25783784       1.94601414
C        8.20632383       1.20852385       0.76567508
C        9.29047350       1.07058327       1.78606422
C       10.26579720       2.70964614       3.42148269
O       10.40484113       1.73017717       4.29749585
O        9.43232034       0.08511859       2.48101160
O       10.21228285       3.86555486       3.72257303
H       10.25681558       0.84769883       3.88220756
H       11.22273588       1.95514205       1.68923332
H        9.91330753       3.10331444       1.32559814
H        7.61317094       0.29935146       0.71519463
H        8.64001724       1.42206088      -0.20930081
H        7.56775475       2.04768063       1.03693055
