13
 energy: -23.795636485950 gnorm: 0.000437566637 xtb: 6.2.3 (830e466)
C        10.51733671447217    1.44054923664789    1.86146583081560
C         8.04224732970396    1.46552492664195    1.21173620057318
C         9.27919788141170    0.64886041906244    1.41442156285008
C        10.13954644258549    3.06310524028765    3.54034992310213
O        10.22895366589769    2.76587975618556    2.24789343777945
O         9.35605062925977   -0.53672315584018    1.23881699694783
O         9.81143978117670    4.13315395098343    3.94232396508940
H        10.40918346082075    2.21276814318370    4.20754035931900
H        11.01699825872238    0.88847728832966    2.66825761884387
H        11.20168868863662    1.49264211835954    1.00744514775913
H         7.26119810200163    0.85635216766331    0.76699279725675
H         8.26663838836760    2.32261507437175    0.58100049326749
H         7.69921065694355    1.84928483412330    2.17185566639643
13
Properties=species:S:1:pos:R:3 energy:=T -23.788692238650=T gnorm:=T 0.000746088518=T xtb:=T 6.2.3=T (830e466)=T pbc="F F F"
C       10.76832234       1.49422479       2.07060929
C        8.13382691       2.43574038       1.52261947
C       10.24104395       0.10413143       2.35905538
C        8.93501236       2.96710653       2.68442849
O       10.19913272       2.51272610       2.85377312
O        9.29547412      -0.15715716       3.03854817
O        8.52944820       3.79354476       3.44886487
H       10.83995216      -0.67754488       1.85204426
H       11.83718480       1.50887998       2.30971971
H       10.66222112       1.68396566       0.99296966
H        7.95232847       1.37077033       1.64179320
H        8.65439046       2.60867216       0.58247050
H        7.18135240       2.95742993       1.50320387
