13
 energy: -23.802949672882 gnorm: 0.000596390918 xtb: 6.2.3 (830e466)
C         9.79328833711292    2.59749181610146    1.96223688254241
C         8.33733560337929    0.99959846890872    0.62942404858385
C         8.65665915039422    1.56954551716318    1.98197867638232
C        10.89190015940251    1.91029409832992    3.88602733085628
O        10.23906084773172    2.89002036710619    3.27898307129357
O         8.10337632680274    1.26012902102876    2.99891886349920
O        11.20499049800079    0.86476249831248    3.39961188925788
H        11.12948633790028    2.22439949883446    4.91429357692946
H        10.62251375928819    2.21239492653580    1.35857417880463
H         9.43165894042747    3.53987834057928    1.54574191229900
H         7.35539089442623    0.53627045017134    0.64322444544404
H         9.07741254191396    0.23391424139188    0.40198216797112
H         8.38661660321976    1.76370075553655   -0.14075704386368
13
Properties=species:S:1:pos:R:3 energy:=T -23.721651101511=T gnorm:=T 0.000981420231=T xtb:=T 6.2.3=T (830e466)=T pbc="F F F"
C        9.39307721       3.11053893       1.57229295
C        8.09278933       1.15964461       0.62353869
C        8.89918431       1.68106444       1.76796859
C       11.19155553       1.29957304       4.02234498
O        8.75824314       3.95213685       1.00131660
O        9.15863663       1.06064376       2.77245482
O       11.78155664       2.08884165       3.34089928
H       10.57655399       1.59976628       4.88410894
H       11.26442912       0.21196695       3.86843038
H       10.38235642       3.30402400       2.01967296
H        7.57769918       0.24229173       0.89348121
H        8.76294857       0.96360955      -0.21310322
H        7.39065992       1.92829822       0.30683383
