13
 energy: -23.794003184809 gnorm: 0.000668848613 xtb: 6.2.3 (830e466)
C        10.14192526031647    2.29059252296405    1.68588973851939
C         8.25818738268470    1.13788959416868    0.41646339817296
C         9.07112706962783    1.19038937838107    1.67753977219875
C        10.80940723051537    2.08888373556961    3.93684949368971
O        11.14141111046955    2.03713791165905    2.64414453831703
O         8.92040588414922    0.46135588554279    2.61733567194580
O        11.55703208973986    1.77900996167938    4.80793147236697
H         9.78954837144878    2.48767643146908    4.11866967026184
H        10.64857511679041    2.34687337772510    0.72101637723326
H         9.63787967392030    3.24821819220300    1.88342934395896
H         7.36357635886036    0.54206206485144    0.57407015362019
H         8.85732963937425    0.66719191025890   -0.36122333672241
H         7.99359481210296    2.13730903352781    0.08229370643753
13
Properties=species:S:1:pos:R:3 energy:=T -23.719829357277=T gnorm:=T 0.000693523211=T xtb:=T 6.2.3=T (830e466)=T pbc="F F F"
C       10.17079120       2.02909432       1.75337568
C        8.12893423       1.30372012       0.38891245
C        9.01364171       1.06271895       1.57374304
C       10.72805626       3.23036944       4.39574475
O       10.96409003       1.64645959       2.84430684
O        8.86871539       0.16023298       2.36210055
O       11.47306464       2.94984703       5.20682257
H       10.51609269       0.87697452       3.24576884
H       10.78514123       2.04984073       0.84527584
H        9.77455384       3.03792245       1.92981584
H        7.20492084       0.74107977       0.49111427
H        8.64584564       0.96349532      -0.50735235
H        7.91615230       2.36283477       0.27478167
