9
 energy: -15.696328357507 gnorm: 0.000835386914 xtb: 6.2.3 (830e466)
C        -4.06161820761906    2.51325467524568   -0.33203501269089
O        -3.52936667769261    2.22020693359662   -1.52115892316376
N        -3.47690688711904    2.13347831757197    0.70901538656392
H        -4.05295589883810    2.56789181279675   -2.25153536345148
H        -3.92356707548531    2.37812386865337    1.58332418478587
H        -5.00453689203133    3.08496067071384   -0.36809295242294
O        -0.94237079097035    0.94900437993192   -0.03521762274962
H        -1.15443202915108    0.89664948099945   -0.96890030328854
H        -1.73255554109333    1.32461986049041    0.38080060641813
9
Properties=species:S:1:pos:R:3 energy:=T -15.707770934617=T gnorm:=T 0.000758275385=T xtb:=T 6.2.3=T (830e466)=T pbc="F F F"
C       -2.60354647       1.59374021       0.06496566
O       -2.45079443       1.43754384      -1.25983456
N       -3.60602472       2.18330087       0.53027977
H       -3.20110094       1.84363433      -1.71536774
H       -3.63172751       2.25177241       1.53874947
H       -4.80556819       3.35600822      -1.10640132
O       -1.59269432       1.06205259       0.76658126
H       -5.04477324       3.66384532      -1.78647710
H       -0.94208019       0.67629221       0.16370456
