13
 energy: -23.782529431841 gnorm: 0.000338131349 xtb: 6.2.3 (830e466)
C         9.52530005491694    1.38979721672064    2.01774140772549
C         8.60162312600289    0.76094340776929    0.97898383841266
C         9.31131907688016    2.79830190739603    3.90964567240291
C        10.66849092476867    2.14711725380054    1.35497424167530
O         8.75250365837522    2.25532791074498    2.82849996090752
O         8.76166691893161    3.60955800607997    4.58249750361879
O        11.01353732794567    3.24952854353279    1.65428328617403
H         9.98763583543106    0.60151575278409    2.63765242045358
H        10.32048853717363    2.39437257481951    4.14053746552454
H        11.16834483426591    1.56120267500924    0.56080786671104
H         7.79995545786922    0.22741218518353    1.48130263132182
H         9.15573962152846    0.06828556000253    0.35240937362203
H         8.16300462591058    1.53913700615687    0.36055433145030
13
Properties=species:S:1:pos:R:3 energy:=T -23.709438612064=T gnorm:=T 0.000329330371=T xtb:=T 6.2.3=T (830e466)=T pbc="F F F"
C        9.12043815       1.00977197       1.48254734
C        8.71698065       0.21478277       0.28819846
C        9.97865615       3.44314954       4.60504320
C       10.01908443       1.97529953       1.44338508
O        9.85889907       2.45113260       3.71941568
O        9.55140427       3.34674744       5.70915349
O       10.46107247       2.76813051       2.47154505
H        8.63930011       0.76214927       2.41699336
H       10.50819176       4.32267156       4.19323995
H       10.55453166       2.29026050       0.55898575
H        7.64594696       0.31453149       0.11767933
H        8.92675741      -0.84098806       0.45384195
H        9.24834690       0.54486087      -0.60013866
