13
 energy: -23.792332172351 gnorm: 0.000748421430 xtb: 6.2.3 (830e466)
C         9.62756097592238    1.09132726372082    2.32006048127444
C         8.45034700148927    0.83465150858255    1.39117185045753
C         9.34095655463955    3.24585217368540    3.13682773927128
C        10.83282895727985    1.69168744834299    1.58065669386197
O         9.22993967320048    1.96570059191483    3.39829085583424
O         9.77059551748618    3.71350925632959    2.11935175814852
O        11.90911656974171    1.82598002942199    2.08682402429208
H         9.94794051462913    0.17242129282505    2.82320115497328
H         8.98371591150740    3.83627601368565    3.99401564748972
H        10.64577370165364    1.91090278158875    0.51722217215142
H         7.60037204363644    0.46388776177979    1.95869528326481
H         8.72641311506013    0.09458506168117    0.64537133026924
H         8.16395946375378    1.75589881644142    0.88818100871133
13
Properties=species:S:1:pos:R:3 energy:=T -23.762587843657=T gnorm:=T 0.000516590388=T xtb:=T 6.2.3=T (830e466)=T pbc="F F F"
C        9.75106329       1.00581692       2.17021014
C        8.47781587       0.99946774       1.29725304
C        9.36563699       3.34331077       3.20888607
C       10.19549553       2.44480861       2.30453000
O       10.76497782       0.21942267       1.61628428
O        8.30545322       3.04795610       3.68047056
O       11.14649352       2.88347817       1.70135447
H        9.50952006       0.59229423       3.15601626
H        9.85518076       4.31585315       3.39742974
H       11.31982871       0.79102733       1.06444229
H        7.66711720       1.51122931       1.80614817
H        8.19644681      -0.03412009       1.11500058
H        8.67449023       1.48213508       0.34184440
