13
 energy: -23.848070127183 gnorm: 0.000352390352 xtb: 6.2.3 (830e466)
C         8.29492463713864    1.37008399440088    1.78529586893868
C        10.56546367553391    2.21836975996388    1.61119045692608
C         9.68936558482785    1.01711653737826    1.29154756554201
C         9.39222484810216    2.31192672121910    3.72206611796451
O        10.48904111703036    2.54961542782698    2.99318986944779
O         8.32120537851576    1.74093603084907    3.15911563930847
O         9.37329372766896    2.59896465902654    4.87934329665039
H         7.88041262391346    2.20377773729263    1.20446432399953
H         7.60683330604077    0.52326179218091    1.72736988465763
H        11.62323799171185    2.02417700968106    1.41850926082006
H        10.25251958146436    3.09062462734759    1.02338961498544
H         9.68240287143358    0.81636059261194    0.22249968234886
H        10.05876465661835    0.13740511022115    1.82200841841055
13
Properties=species:S:1:pos:R:3 energy:=T -23.826106233151=T gnorm:=T 0.000625985457=T xtb:=T 6.2.3=T (830e466)=T pbc="F F F"
C        8.12335021       2.38549986       1.79249804
C       10.40110076       2.16022420       1.30569026
C       10.24680128       0.93975616       2.22347985
C        9.37306960       1.25827585       3.42416568
O        9.26626072       3.01943348       1.34910524
O        8.25251801       1.94502605       3.13003250
O        9.61220584       0.91968372       4.54537538
H        7.31889004       3.12478335       1.79096259
H        7.84822304       1.52923032       1.14881182
H       11.24797874       2.77461020       1.62195027
H       10.56748008       1.83774362       0.26831421
H        9.75652614       0.12190497       1.68711766
H       11.21528553       0.58644822       2.57248650
