12
-51.17295519238178
C        1.302091       1.955418      -1.570998
C        0.493532       0.802918      -0.936423
C        1.139775      -0.530963      -1.132646
O        1.486517       1.772250      -2.940869
O        0.621001       3.155945      -1.384289
O        2.037571      -0.759608      -1.898848
H        0.528315       3.561985      -2.254834
H        2.282443       2.018470      -1.056289
H        1.939229       0.926103      -3.075215
H        0.708520      -1.335462      -0.507590
H       -0.495846       0.769598      -1.402820
H        0.345753       1.002836       0.125100
12
-51.173050467145
C        1.302105       1.955419      -1.571014
C        0.493551       0.802913      -0.936433
C        1.139793      -0.530976      -1.132623
O        1.486503       1.772255      -2.940880
O        0.621015       3.155954      -1.384277
O        2.037479      -0.759619      -1.898789
H        0.528305       3.561957      -2.254789
H        2.282475       2.018477      -1.056309
H        1.939210       0.926125      -3.075246
H        0.708574      -1.335426      -0.507580
H       -0.495856       0.769579      -1.402874
H        0.345746       1.002831       0.125093
