12
-43.455950793457305
C        1.350763       1.875791      -1.647309
C        0.496041       0.791755      -0.980954
C        1.135466      -0.558111      -1.071053
O        1.339704       1.914073      -3.017958
O        0.670629       3.125546      -1.336215
O        2.097183      -0.807485      -1.747171
H        0.542728       3.650205      -2.136243
H        2.339098       1.998897      -1.176189
H        1.819231       1.043675      -3.206834
H        0.644853      -1.338327      -0.459602
H       -0.476305       0.743824      -1.479901
H        0.314763       1.062659       0.059344
12
-44.26062424512929
C        1.350030       1.875975      -1.647939
C        0.494778       0.792658      -0.981903
C        1.136040      -0.556801      -1.069157
O        1.340165       1.910582      -3.023799
O        0.673596       3.119696      -1.332782
O        2.100443      -0.804562      -1.741888
H        0.546094       3.645399      -2.132145
H        2.338214       1.999163      -1.177136
H        1.814861       1.050769      -3.214548
H        0.644511      -1.337631      -0.459248
H       -0.476474       0.743312      -1.482779
H        0.311352       1.065413       0.057464
