12
-16.46347885259638
C        1.399892       1.801557      -1.728776
C        0.507507       0.779637      -1.036172
C        1.134920      -0.580622      -1.016818
O        1.239556       2.061781      -3.037060
O        0.676558       3.097479      -1.323344
O        2.145880      -0.867740      -1.599878
H        0.533701       3.720585      -2.043300
H        2.372794       1.988113      -1.260853
H        1.791357       1.139323      -3.261127
H        0.591574      -1.327377      -0.408532
H       -0.448045       0.712772      -1.563119
H        0.296268       1.117445      -0.021346
12
-18.275177173452903
C        1.402045       1.801832      -1.726932
C        0.507729       0.781325      -1.034112
C        1.134993      -0.579286      -1.009045
O        1.242603       2.060888      -3.039520
O        0.677761       3.085843      -1.316790
O        2.148768      -0.867839      -1.586556
H        0.534609       3.712261      -2.033650
H        2.373011       1.992875      -1.257139
H        1.791353       1.154243      -3.264308
H        0.589647      -1.324947      -0.401214
H       -0.446538       0.713594      -1.562850
H        0.294646       1.122497      -0.020803
