13
 energy: -16.684426654872 gnorm: 0.000441000096 xtb: 6.2.3 (830e466)
C        -0.80564969442550   -1.21848368564401   -0.22355959969998
C         1.90848950307100    0.39207174996427   -0.19410445014449
C        -0.61469771920782    0.24891761195934   -0.00307680083662
C         0.52823318654348    0.92677569421639    0.00923975810294
O        -1.82269027323556    0.86880069026580    0.19957524330047
H        -1.68636735829613    1.81261906459397    0.34053888668136
H         0.48622917738081    1.99679146571810    0.18545178885581
H         0.13599267927223   -1.72800901599483   -0.38908221472746
H        -1.45392402576296   -1.37030724450228   -1.08486079359622
H        -1.30135102615154   -1.65018346508916    0.64425640623499
H         2.37634509900794    0.88172387276568   -1.04878390086599
H         1.91268620713432   -0.67893964037474   -0.36742421304739
H         2.52301424466973    0.60215290212147    0.68187988974259
13
Properties=species:S:1:pos:R:3 6.2.3=T gnorm:=T pbc="F F F" 0.000813956641=T -16.667038095822=T energy:=T xtb:=T 830e466=T
C      -0.73666533      -1.17267721       0.02360678 
C       2.08999156       0.80413160       0.00689425 
C      -0.24103992       0.13523372      -0.60645312 
C       0.80023911       0.76218008       0.28064703 
O      -1.31297170       1.02245462      -0.85426741 
H      -1.72948036       1.24077072      -0.01199378 
H       0.41729847       1.18990947       1.20007703 
H       0.08819311      -1.87242601       0.12658135 
H      -1.50548617      -1.61696306      -0.60397089 
H      -1.15756590      -0.98100494       1.00995349 
H       2.80275435       1.25042481       0.67951493 
H       0.18385313      -0.07079956      -1.59382376 
H       2.48718965       0.39269575      -0.90671590 
