11
 energy: -12.882716759424 gnorm: 0.000554091134 xtb: 6.2.3 (830e466)
C         1.20943853852315    0.02730834667361    1.60376755225013
C        -2.50728400138116   -0.20367889438917    1.42863703891524
C        -1.11335494521458    0.03136498680320    1.89016536890160
N        -0.13369172672765   -0.20478047386444    1.14345268683183
H        -1.01378728247901    0.42149138854287    2.91710178064217
H         1.89085017606947   -0.23378671262611    0.79540268441826
H         1.36424189563056    1.07502672543422    1.87661771374865
H         1.44308902755077   -0.58597059888314    2.47851132894811
H        -2.50410421865140   -0.58478548326897    0.41185057404987
H        -2.99849374312257   -0.91941187875518    2.08684741437800
H        -3.07152372019760    0.72733259433311    1.46933585691612
11
Properties=species:S:1:pos:R:3 6.2.3=T gnorm:=T -12.872197613553=T pbc="F F F" energy:=T 0.000893199647=T 830e466=T xtb:=T
C       1.00339646       0.01119120       1.45885849 
C      -2.67892265      -0.10119880       1.88172577 
C      -1.37219221      -0.00766036       2.10896233 
N      -0.39637920      -0.09654865       1.15724478 
H      -0.99006757       0.15172406       3.10889147 
H       1.58102989      -0.09124038       0.54303831 
H       1.24004372       0.98249298       1.90828680 
H       1.32182154      -0.77228209       2.15614208 
H      -0.68233120      -0.24495184       0.20561937 
H      -3.38969401      -0.02152265       2.68112943 
H      -3.07132478      -0.25989348       0.89179116 
