10
 energy: -15.409002159419 gnorm: 0.000172278279 xtb: 6.2.3 (830e466)
C        -1.42949369979938    0.36586845965406   -0.43302473569804
C         1.38245776293645   -0.01269123043214    0.50665165330354
O        -0.56919675122179   -0.74951836935658   -0.53275077176429
O         0.89343960399722    0.56634348145317    1.43770512611434
H        -0.81154441638046   -1.38083441997702    0.15492698716653
H        -1.19917220961158    1.01395344256077   -1.27631493971095
H        -2.47852381721580    0.06450667387542   -0.48479382539295
H        -1.24912145915366    0.91086486140060    0.49991042309949
H         1.69036103428094   -1.06934434713118    0.55710347128387
H         1.65171395216803    0.49184144795302   -0.43301338840115
10
Properties=species:S:1:pos:R:3 0.000543896273=T -15.458172104467=T gnorm:=T pbc="F F F" energy:=T xtb:=T 6.2.3=T 830e466=T
C      -1.16262969       0.96559239      -0.02679049 
C       0.75212681      -0.39569468       0.04724139 
O       0.17502920      -1.59031894      -0.37989683 
O      -0.12549810       0.41762778       0.76230365 
H      -0.16682124      -2.06277628       0.38913792 
H      -0.75375467       1.63854635      -0.78789016 
H      -1.74105792       0.17869014      -0.52006686 
H      -1.80254834       1.52284353       0.65247011 
H       1.59816299      -0.57588102       0.72637471 
H       1.10791096       0.10236072      -0.86648344 
