10
 energy: -38.840747255934 gnorm: 0.000362410955 xtb: 6.2.3 (830e466)
C        -0.36526140513746    0.04571004577647   -7.13809334961007
C        -0.99103923564928   -0.84572080601360   -4.72375769593901
C        -0.04598647106879   -0.23322475324569   -5.66692936427948
O         0.03119335079796   -1.56481553528722   -5.25184113200084
F         0.73798155717656    0.10553009687455   -7.87207771414388
F        -1.14751289024793   -0.90392386310952   -7.63808368606943
F        -1.00248674897551    1.21021764534238   -7.26284553618516
F        -0.96135426123767   -0.55252346622495   -3.43650103486884
F        -2.22931383413352   -1.15228421064236   -5.07810264949990
F         0.90907993847563    0.58064484652995   -5.18855783740339
10
Properties=species:S:1:pos:R:3 -38.837212483726=T 6.2.3=T gnorm:=T pbc="F F F" energy:=T xtb:=T 830e466=T 0.000421752921=T
C      -0.36621401      -0.20725785      -7.22609025 
C      -0.78142001      -0.21315097      -4.63786394 
C      -0.16516077      -0.95080016      -5.86776066 
O       0.40659265      -1.98528752      -5.78392512 
F       0.81771717       0.06765619      -7.77068473 
F      -1.04150931      -0.98415132      -8.07123501 
F      -1.03316777       0.93439413      -7.09560551 
F      -0.56981747      -0.90462810      -3.52691067 
F      -2.09693152      -0.06040765      -4.78892289 
F      -0.23478896       0.99324324      -4.48779122 
