7
 energy: -10.355109522821 gnorm: 0.000433133212 xtb: 6.2.3 (830e466)
C        -2.10325092443031    3.49457630095382    0.44564474620848
C        -1.22396325347896    2.58507760730447   -0.35904652400864
O        -0.96313294075010    2.73410863332083   -1.51868259793668
H        -0.80907770399276    1.72711192078708    0.20735311915286
H        -1.69245432020345    4.50301854403216    0.41933554334502
H        -2.19582779139480    3.16170372386975    1.47409347657867
H        -3.08789306574963    3.54060326973189   -0.01778776333970
7
Properties=species:S:1:pos:R:3 6.2.3=T gnorm:=T pbc="F F F" -10.347576119552=T energy:=T xtb:=T 0.000220912261=T 830e466=T
C      -2.30095708       3.11845002       0.75706149 
C      -1.31744298       2.71787043      -0.02959861 
O      -0.87364714       3.35872102      -1.13538880 
H      -0.75755641       1.81036945       0.14366615 
H      -1.38843892       4.16516674      -1.26904147 
H      -2.59016776       2.54765439       1.61780522 
H      -2.84738972       4.02796796       0.56640603 
