8
 energy: -11.603394381455 gnorm: 0.000978849368 xtb: 6.2.3 (830e466)
N        -2.07067541133165    0.72908578129301   -0.13287740983078
C         0.76664542586085   -0.00101856553082    0.48188453713343
O         1.15985012682712    0.11595100597026   -0.63925314840244
H        -1.51355835609091    1.30906768463538   -0.74671236285335
H        -1.92548911666951   -0.23602896149930   -0.39862226272961
H        -1.74079235179092    0.85614104409573    0.81446101137113
H         0.79459634958459    0.82490680238671    1.21346206837955
H         0.37442333361037   -0.95171479135095    0.88204756693204
8
Properties=species:S:1:pos:R:3 6.2.3=T gnorm:=T pbc="F F F" 0.000520019063=T energy:=T -11.654834279866=T xtb:=T 830e466=T
N      -1.47592865       0.10380713       0.64084106 
C      -0.05636847       0.14350998       0.43671669 
O       0.35983690       0.53019132      -0.85820481 
H       0.10596808       1.44685559      -1.01855266 
H      -1.91495759      -0.54402983      -0.00286683 
H      -1.89590561       1.01774797       0.50683591 
H       0.37821276       0.81184604       1.19380880 
H       0.34414258      -0.86353820       0.57581183 
