11
 energy: -17.520737348460 gnorm: 0.000709998725 xtb: 6.2.3 (830e466)
C         1.38520498101613   -0.16388885325809    1.80954529089872
C        -0.52455734095438   -2.51076920544314    2.32474847310840
C         0.15672322013552    0.12990379310704    1.41654766392471
O         2.19687257328497   -0.99443256633492    1.09526580025387
O        -1.69878750215514   -2.34133115396797    2.46469220310273
H         3.07921995758196   -1.01946561057936    1.47667474547493
H         1.79696837523863    0.23437925157934    2.72988611578396
H        -0.06695341794278   -2.78192377491546    1.36153340713400
H         0.18925085274537   -2.43757524105543    3.16340652366515
H        -0.47150586673160    0.77041763218984    2.00414270090887
H        -0.24042583221885   -0.25061427132139    0.49365707574464
11
Properties=species:S:1:pos:R:3 6.2.3=T gnorm:=T pbc="F F F" 0.000359699656=T energy:=T xtb:=T 830e466=T -17.573981957149=T
C       1.03912293      -0.76377456       1.99820464 
C       0.20523999      -2.02468059       2.29525793 
C      -0.29103316      -0.18108844       1.50994060 
O       2.01427644      -0.84811886       1.00308750 
O      -1.00115963      -1.33011989       1.97665343 
H       2.76703587      -1.35211732       1.33122469 
H       1.42962194      -0.27775942       2.90132792 
H       0.39358390      -2.84573520       1.59589201 
H       0.21098083      -2.39373741       3.32320392 
H      -0.63205874       0.74038258       1.98369378 
H      -0.33360036      -0.08855089       0.42161358 
