7
 energy: -10.341830839550 gnorm: 0.000158263676 xtb: 6.2.3 (830e466)
C         0.70625245063864    0.33284076728691    1.50491938129040
C         0.17326840132506    1.17409354558898    0.63650348832555
O         1.48622582079974   -0.71563995050069    1.11536891907337
H         1.78734271805346   -1.21582814689766    1.87919514674793
H         0.54457376256218    0.44049101079869    2.57191942780392
H        -0.43863120017043    1.99172760264433    0.96469531317048
H         0.33996804679134    1.05866517107943   -0.41874167641165
7
Properties=species:S:1:pos:R:3 6.2.3=T gnorm:=T pbc="F F F" energy:=T -10.356705850389=T xtb:=T 0.000544655112=T 830e466=T
C       1.32193703       0.32342613       1.69478682 
C       0.16634596       0.52592055       0.76803391 
O       2.46853640       0.21597696       1.36680644 
H      -0.54328592      -0.28927537       0.89671021 
H       1.02723493       0.27320799       2.76278133 
H      -0.34406914       1.45107796       1.02912297 
H       0.50230074       0.56601578      -0.26438168 
