11
 energy: -17.522519630300 gnorm: 0.000881080341 xtb: 6.2.3 (830e466)
C         1.01663419969543   -0.09946762710205    1.94874610233676
C        -0.03268408077220   -2.69795213027777    2.21594049303999
C        -0.00156238415465    0.32361629573094    1.21523415476397
O         2.11842142534803   -0.67040020986860    1.39918192194670
O         0.94268545167165   -2.95826077760519    2.85802625343053
H         2.61998555728654   -1.15223625429900    2.06611749922745
H         1.02086921470682    0.01652694281342    3.02775134547007
H        -0.07161857363982   -2.80698780384634    1.12112214513780
H        -0.97102469011542   -2.34755126051075    2.67520569409831
H        -0.84293401163620    0.81235178602641    1.66717519789098
H         0.00333789161005    0.21517103893903    0.14570919265764
11
Properties=species:S:1:pos:R:3 6.2.3=T gnorm:=T pbc="F F F" 0.000681983200=T energy:=T -17.580788817029=T xtb:=T 830e466=T
C       0.82628218      -0.70393336       2.13430829 
C       0.36426781      -1.98146326       2.79053182 
C      -0.11215977      -0.38542392       0.95830227 
O       2.15745096      -0.81765890       1.71721389 
O       1.04736798      -2.96761086       2.84130501 
H       2.40933949      -1.75024613       1.81254032 
H       0.75935368       0.10995919       2.87279827 
H      -0.09145717      -1.19793908       0.23594906 
H      -0.66114101      -1.95109262       3.19640275 
H      -1.12918933      -0.24087034       1.31148116 
H       0.23199518       0.52108929       0.46937716 
