16
 energy: -17.822750257175 gnorm: 0.000958846624 xtb: 6.2.3 (830e466)
C        -1.21914839265612    0.74901321362995   -0.07827100495052
C        -1.15401387970243   -0.66527653642120   -0.41025704891223
C        -0.92884833767980    1.28371265882053    1.10170416704365
C        -1.13133385691140   -1.66703325130622    0.46118516058506
C         2.10615209773286    0.54443525230414   -1.06977607833607
C         2.28583886253149   -0.22923669900616   -0.02092372665214
H        -1.51648252473338    1.39796881457359   -0.89279931930555
H        -1.14270560500596   -0.88695116618048   -1.47064087122070
H        -0.59968814663986    0.68635527271175    1.93435429603585
H        -0.99735930100270    2.34383704467064    1.27425065031064
H        -1.08248842672791   -2.69387617569774    0.14066741949249
H        -1.16964670781966   -1.50172528635755    1.52486984041776
H         2.18131150682175    1.61743474329232   -1.00767726260296
H         1.87247289128467    0.14244761955728   -2.04200533980005
H         2.51894706106002    0.17390716277608    0.95067600762497
H         2.20391275944818   -1.30210266736664   -0.08105688972996
16
Properties=species:S:1:pos:R:3 6.2.3=T gnorm:=T pbc="F F F" 0.000791427368=T energy:=T xtb:=T -17.874714689269=T 830e466=T
C      -0.09492451       0.42163323      -0.45507148 
C      -0.98193181      -0.79597833      -0.50533867 
C      -0.09804407       1.12886004       0.89413372 
C      -1.65066309      -1.32901070       0.49877679 
C       1.27580056      -0.00521736      -0.91432733 
C       2.40308681       0.09196356      -0.23560711 
H      -0.47792046       1.12300191      -1.21229027 
H      -1.03447874      -1.25773975      -1.48431307 
H       0.27361344       0.47184870       1.67598437 
H      -1.10877187       1.43936575       1.14853683 
H      -2.25364679      -2.21120078       0.36261229 
H      -1.63795540      -0.91880490       1.49325541 
H       0.53248866       2.01389009       0.85119557 
H       1.28761592      -0.44318742      -1.90509091 
H       2.45643373       0.51495169       0.75196233 
H       3.33621762      -0.25146574      -0.65011846 
