16
 energy: -17.823205815449 gnorm: 0.000515345448 xtb: 6.2.3 (830e466)
C        -1.72487590993889    0.92526479064074   -0.13725372866822
C        -1.74687933311931   -0.47160517313867   -0.54365968275678
C        -0.82997194426191    1.48408196616378    0.66910378283774
C        -1.12487045371940   -1.46833243500157    0.07559903455828
C         2.17800117653360    0.08667297855614   -0.57995297488006
C         2.86391895633781   -0.41848763296879    0.42405444605388
H        -2.51046183955123    1.53803454342849   -0.56240434721549
H        -2.34568556070319   -0.68508416133974   -1.42122716721086
H        -0.00951652257610    0.92784856312815    1.08916439889776
H        -0.87619181842421    2.52901689236850    0.92376911137513
H        -1.18489689448277   -2.48170804302869   -0.28318339718208
H        -0.54321014716325   -1.31136606533106    0.96805923063350
H         2.44647593733709    1.02397815255269   -1.03864129426279
H         1.31210539720941   -0.40832539423563   -0.98852195884133
H         2.59552325297599   -1.35555047257179    0.88398674338298
H         3.72764570354641    0.07835149077836    0.83548780327829
16
Properties=species:S:1:pos:R:3 6.2.3=T gnorm:=T 0.000647493935=T pbc="F F F" -17.881523563244=T energy:=T xtb:=T 830e466=T
C      -1.31006844       0.69029442      -0.13920866 
C      -1.65605687      -0.65115961      -0.58977119 
C      -0.09676387       1.22451621      -0.02142335 
C      -1.02839031      -1.77649819      -0.27489649 
C       1.20727427       0.57165652      -0.34942433 
C       1.98984611       0.22945578       0.92047647 
H      -2.16944564       1.31426189       0.08055379 
H      -2.54749245      -0.69982632      -1.20493713 
H       2.20428294       1.13133948       1.48941288 
H      -0.01476070       2.24608802       0.32937564 
H      -1.36322512      -2.73130227      -0.64504314 
H      -0.17704675      -1.79405712       0.38281756 
H       1.80450703       1.26413158      -0.95016765 
H       1.03841672      -0.33198756      -0.93597268 
H       1.41461661      -0.44153602       1.55450972 
H       2.93141649      -0.25258683       0.66807856 
