10
 energy: -11.549257541736 gnorm: 0.000180603922 xtb: 6.2.3 (830e466)
C        -1.78237993695924   -0.69623143120700   -0.42965937747287
C        -1.83555058180267    0.74495841666279   -0.24011632999716
C        -1.00311071358690   -1.54758507802736    0.22837378870787
C        -1.10593438176642    1.45296138585555    0.61513769354991
H        -2.45516321855630   -1.08121827672021   -1.18610881654684
H        -2.54776845334398    1.26142367741965   -0.87184497200778
H        -0.31530773046131   -1.22774596935301    0.99214965828742
H        -1.02637357967803   -2.60440245821354    0.02466751418053
H        -1.20918886015093    2.52172838952532    0.69253391658281
H        -0.38122254369421    0.99883134405781    1.26881692471610
10
Properties=species:S:1:pos:R:3 6.2.3=T gnorm:=T pbc="F F F" 0.000662018549=T energy:=T -11.557969044117=T xtb:=T 830e466=T
C      -2.06687547      -0.61833016      -0.55070148 
C      -1.96122579       0.70587561      -0.53029259 
C      -1.02043912      -0.82942101       0.50777108 
C      -0.89543703       0.71609460       0.52982014 
H      -2.66640471      -1.31871494      -1.10366791 
H      -2.44155313       1.50882061      -1.05975818 
H      -1.37862219      -1.27347684       1.43580300 
H      -0.12544525      -1.35618470       0.18047479 
H      -1.17852509       1.18616599       1.47088153 
H       0.07252777       1.10189084       0.21361962 
