21
 energy: -31.056093789674 gnorm: 0.000706586962 xtb: 6.2.3 (830e466)
C         2.37027503809566   -1.59447696299792    0.25277182757645
C        -3.13110361037964   -2.45008206585110    1.47891708333761
C        -3.36630115327993    0.40240481861154    0.15417782354613
C         1.35928528187388   -2.54105392403949    0.82006005281662
C        -3.23011550741100   -0.91724687645173   -0.53689349060111
C        -3.14066065648004   -2.11944245078552    0.02407420426850
O         0.05999661905621   -2.25756665072305    0.57528921770181
O        -0.17101469760339   -1.09010861054602   -0.18865600623792
O         1.58092160516835   -3.52244689142650    1.46908617291428
H        -1.15179594041721   -1.09910874238004   -0.26932571061412
H        -3.05869508084492   -2.98458871204911   -0.62319530369992
H        -3.23683659414863   -0.85034256396728   -1.61846149198518
H         2.25974103878104   -1.55484981745053   -0.82949849095636
H         3.36743278935597   -1.92797747368583    0.52120748062760
H         2.18479801746769   -0.59447238973868    0.64086525005683
H        -3.25699623502551   -1.57294678224586    2.10654625516851
H        -2.19018703038783   -2.93647958457721    1.73642023129417
H        -3.93385051923866   -3.15293601777996    1.69815472920432
H        -3.24134555287609    0.31997515124852    1.22900426701116
H        -4.35205638746265    0.82126340041256   -0.04706774348100
H        -2.62819142424167    1.10557314643377   -0.23058635797803
21
Properties=species:S:1:pos:R:3 0.000953132936=T 6.2.3=T gnorm:=T pbc="F F F" -31.062544139002=T energy:=T xtb:=T 830e466=T
C       0.70480683      -1.55394948      -0.54035721 
C      -2.63490444      -2.23126461       1.39979391 
C      -3.36552282       0.10260423      -0.40565899 
C      -0.30613098      -2.22040273       0.38985602 
C      -2.02501670      -0.55299104      -0.34598348 
C      -1.68849972      -1.57655124       0.42815232 
O       0.22464485      -2.29211472       1.72987165 
O       0.37220096      -1.01331120       2.30705187 
O      -0.38627187      -3.55958510       0.01667149 
H       1.33041907      -0.90996629       2.39293969 
H      -0.95737691      -4.02034674       0.64453858 
H      -1.29907381      -0.11920236      -1.01730303 
H       0.84966163      -0.51408186      -0.26287918 
H       0.35436044      -1.62656977      -1.56404807 
H       1.64459101      -2.09431186      -0.45486416 
H      -3.21640428      -1.48169964       1.93024899 
H      -2.07885124      -2.80315786       2.14030471 
H      -3.32377941      -2.89807623       0.87936530 
H      -4.10020060      -0.39801519       0.21582760 
H      -3.72368293       0.10466359      -1.43481762 
H      -3.28166907       1.14142008      -0.08582037 
