17
 energy: -33.125206381913 gnorm: 0.000829017016 xtb: 6.2.3 (830e466)
C         1.15817140417255    0.06628607795420    3.31875929145200
C         1.94490605461974    1.34363544974692   -0.26870831859357
S        -1.25268922529185   -0.55228398220950    1.53760148552817
C         1.27024533800661    0.91350604347055    2.08839191116470
C         1.86638629676977    0.52679642468429    0.97215330210480
O        -0.23085423872897   -0.15097773923822    3.57640264728510
Cl       -1.65410419422994   -0.53076328661559   -0.54161476473395
Cl       -0.12316896131269   -2.32191878986274    1.47709788655959
O        -2.48930719665206   -0.90996400610299    2.13863064774715
H        -0.34097625722383   -0.80933267469615    4.27272142509667
H         1.67348016231700   -0.88818809853444    3.16965720503134
H         1.60087382847441    0.58404618774413    4.18013274095131
H         0.79191822888923    1.87980513970758    2.15707425209845
H         2.33554801480974   -0.44711738860116    0.92152959338842
H         1.40843346418553    0.83693959568325   -1.07016876681096
H         2.98048883359383    1.45500932795596   -0.58617773481929
H         1.50893844757575    2.32781171891649   -0.12148280345689
17
Properties=species:S:1:pos:R:3 0.000649685417=T gnorm:=T pbc="F F F" -33.126910916337=T energy:=T xtb:=T 6.2.3=T 830e466=T
C       0.95597156      -0.27670306       2.62751346 
C       2.23277434       1.89240088      -0.33409097 
S      -1.42038754      -0.08953506       1.55442727 
C       1.27548228       0.87540549       1.72857579 
C       1.91794254       0.75937514       0.57718547 
O      -0.45005448      -0.40134756       2.83811137 
Cl      -0.85040964      -1.74564676       0.35220854 
Cl      -0.60232278      -2.49043240       5.18742945 
O      -2.73249291      -0.36420786       2.02709878 
H      -0.73939256      -1.63094914       4.24182672 
H       1.32961937      -1.21305552       2.20136089 
H       1.38814542      -0.13510678       3.62242108 
H       0.92656756       1.83915517       2.07536321 
H       2.25861011      -0.21378037       0.24932158 
H       1.79095915       1.71297387      -1.31338094 
H       3.31020254       1.97166143      -0.47256946 
H       1.85707506       2.83308253       0.05919774 
