15
 energy: -17.688276882189 gnorm: 0.001002180138 xtb: 6.2.3 (830e466)
C         0.40607200043690   -1.35023893644453   -0.84640984886262
C         1.08231186706164    1.03743384761934   -0.36411350366687
C        -0.03002414013230    0.06089996520350   -0.59851256453401
C        -1.30624749451925    0.41589886235321   -0.56568316377324
O        -0.67420816728474   -0.31898589757463    2.59526453613151
H        -0.89059938785668   -0.28899311113504    1.65675046120136
H        -0.57880243921483    0.59041417949962    2.88601511510163
H        -0.44515596670870   -1.99857613893065   -1.03569167145649
H         1.07709861545456   -1.39205747706128   -1.70349175547100
H         0.94950240445077   -1.73008157308580    0.01838773323178
H         1.66321868380270    0.73960096383267    0.50823829507813
H         1.75692704410175    1.05045220978770   -1.21884063559981
H         0.70023828174253    2.04266759235230   -0.20692841289719
H        -2.09917984846038   -0.29269302120088   -0.73681901084589
H        -1.61103145287335    1.43424853478429   -0.38805557363716
15
Properties=species:S:1:pos:R:3 -17.731824736057=T gnorm:=T pbc="F F F" 0.000609696494=T energy:=T xtb:=T 6.2.3=T 830e466=T
C       0.44240942      -1.40829745      -0.37130849 
C       0.92850451       1.05864208      -0.33200385 
C       0.05340811      -0.06306857       0.24174682 
C      -1.42680865       0.23798381      -0.02574523 
O       0.27978169      -0.19149439       1.63858646 
H      -2.04827361      -0.53995280       0.41194667 
H       0.04615232       0.63922373       2.06682122 
H       0.29726818      -1.39322298      -1.44758421 
H       1.48510764      -1.62138092      -0.15197958 
H      -0.16642207      -2.19678362       0.06267715 
H       1.97519153       0.86191402      -0.11126810 
H       0.80304174       1.12421846      -1.40946415 
H       0.65684774       2.01779557       0.10743699 
H      -1.61814779       0.28056026      -1.09464082 
H      -1.70794076       1.19385280       0.41488914 
