20
 energy: -28.385043854271 gnorm: 0.000423249866 xtb: 6.2.3 (830e466)
C        -2.02932492492302    0.19776508723136   -1.33562235615800
C         0.18125423219895   -0.28919315450013   -0.56547672292661
C         0.39933198950438    0.98515432335574   -0.05470697289780
C         1.20093389441367   -1.23902235274872   -0.48731021128548
C         1.62248789956488    1.29732328933978    0.51587157429697
C         2.41293821008586   -0.91686525261282    0.08635463219538
C         2.63195765821549    0.35620750286461    0.58959567528423
C        -2.78648439905306    0.54259296827325   -0.08302763211591
C        -2.60878982895348   -0.03208946043822    1.09052711568088
O        -0.96939256024461   -0.71287499172724   -1.16259880716447
H        -1.67397089598073    1.11911717321964   -1.82179029785281
H        -2.71141638798897   -0.30261045270884   -2.03432396970078
H        -0.37559780859746    1.73519082283004   -0.08237493546569
H         1.01358499174119   -2.22383841214561   -0.88622962531691
H         1.77980805876753    2.29119918808979    0.90895734051555
H         3.19262956856296   -1.66227011946776    0.14053853784482
H         3.58095279723223    0.60930460141745    1.03751986107458
H        -3.52984694939067    1.31599616988875   -0.22382047972312
H        -3.18753831189212    0.24940926930500    1.95301145767275
H        -1.87289723326298   -0.80508619946564    1.23569581604204
20
Properties=species:S:1:pos:R:3 6.2.3=T gnorm:=T pbc="F F F" 0.000293298010=T energy:=T xtb:=T -28.395223036602=T 830e466=T
C      -1.90296133       0.35402068      -1.80023371 
C      -0.21313609       0.05933888       0.60158928 
C       0.37930620       1.30815881       0.73699866 
C       0.58135721      -1.03249373       0.27430995 
C       1.74246030       1.46297056       0.55418229 
C       1.94276257      -0.87685350       0.08458274 
C       2.52679937       0.37069450       0.22550400 
C      -2.41250878      -0.25402785      -0.57033044 
C      -1.69733130      -0.11399589       0.76460064 
O      -1.82878652      -1.02511291      -1.57661286 
H      -0.95668166       0.88204299      -1.77766534 
H      -2.59614202       0.66713269      -2.57328371 
H      -0.23048908       2.16492125       0.98886169 
H       0.12511312      -2.00395364       0.15755822 
H       2.19235752       2.43889236       0.66603038 
H       2.55004657      -1.73180244      -0.17379397 
H       3.59010907       0.49193573       0.07953591 
H      -3.49124431      -0.37901835      -0.47973447 
H      -1.90258145      -1.01178529       1.35329243 
H      -2.12782940       0.74434515       1.28539831 
