20
 energy: -28.383512931896 gnorm: 0.000418527588 xtb: 6.2.3 (830e466)
C        -1.95503563807780    0.55554049624019    0.76225717326228
C         0.36758129794742   -0.02364680623966    0.55524338418895
C         0.63826120271909    0.90181893540345   -0.44691368005538
C         1.38732391976667   -0.87373145357117    0.98813329881797
C         1.90780223170432    0.96892812052501   -0.99826014502337
C         2.64572295901764   -0.79869026638892    0.42982324516115
C         2.91380236427377    0.12449210883471   -0.56929339919526
C        -2.52544796217005    0.04370560819663   -0.52970051119119
C        -3.81526909127989   -0.11248396147850   -0.75596137765824
O        -0.82718302858973   -0.17895986240006    1.19250669754687
H        -2.68565267104805    0.44477933403778    1.56817968385790
H        -1.70729935572001    1.62411190950812    0.67130263888234
H        -0.12317840055453    1.57537559673991   -0.80887249891443
H         1.16090499331164   -1.58476084764504    1.76724649796715
H         2.10410455438106    1.69298694940304   -1.77572236959610
H         3.42259674450444   -1.46529514816239    0.77399111666461
H         3.89785393625301    0.18230211226452   -1.00873902786952
H        -1.79484856987174   -0.21029847961447   -1.28607263312464
H        -4.18592826700747   -0.47549325940820   -1.69919447784182
H        -4.55552121955957    0.12470891375515   -0.00919361587858
20
Properties=species:S:1:pos:R:3 0.000646280731=T 6.2.3=T gnorm:=T pbc="F F F" energy:=T xtb:=T 830e466=T -28.396572121925=T
C      -2.53758292       1.15027788       0.15028365 
C       0.24949157      -0.42251759      -0.00891850 
C       0.64104235       0.72351237      -0.69081716 
C       1.21313338      -1.20988433       0.62040016 
C       1.98114224       1.07020818      -0.73812102 
C       2.54452722      -0.85252696       0.56715187 
C       2.93606932       0.29026679      -0.11312280 
C      -2.04572161      -0.10572912      -0.51046976 
C      -3.37452141      -0.09511516       0.17516707 
O      -1.04180125      -0.85740359       0.09825027 
H      -2.05384401       1.44760832       1.06769842 
H      -2.84696295       1.97487126      -0.47401696 
H      -0.09072786       1.34829149      -1.17879399 
H       0.89088285      -2.09582907       1.14486642 
H       2.27560386       1.96280308      -1.27073559 
H       3.28207335      -1.46876697       1.05975959 
H       3.97807081       0.56903340      -0.15404283 
H      -2.01948128      -0.14224774      -1.59797027 
H      -4.26457163      -0.13846489      -0.43266406 
H      -3.44623204      -0.63299734       1.10685549 
