9
-3.71810401732273
C       -2.047093      -0.549853       1.126544
C       -1.450067       0.527009       1.977069
C       -0.642178      -0.095905       0.882358
H       -1.195981       0.290440       2.999379
H       -2.806061      -0.276035       0.410081
H       -1.800678       1.539040       1.842703
H       -2.201003      -1.523202       1.566178
H       -0.440481       0.488635      -0.002226
H        0.164842      -0.758527       1.154924
9
-3.7181385177937045
C       -2.047095      -0.549855       1.126551
C       -1.450067       0.527013       1.977066
C       -0.642174      -0.095908       0.882358
H       -1.195990       0.290452       2.999350
H       -2.806082      -0.276018       0.410067
H       -1.800669       1.539038       1.842696
H       -2.201016      -1.523231       1.566212
H       -0.440463       0.488652      -0.002222
H        0.164855      -0.758544       1.154933
