12
Properties=species:S:1:pos:R:3 6.2.3=T gnorm:=T 0.000886403806=T pbc="F F F" -21.667291102852=T energy:=T xtb:=T 830e466=T
C       1.24909287       1.19326447      -2.22798549 
C       0.23138929       1.98140405      -1.38818298 
C       1.62642192      -0.79280064      -1.04141449 
O       1.05270249      -0.21347693      -2.08195394 
O       0.37053172       3.36437236      -1.56536849 
O       2.30769049      -0.26498598      -0.21368612 
H       1.21962952       3.64773774      -1.20630550 
H       2.26864602       1.44850902      -1.91503221 
H       1.11683451       1.41158846      -3.28898594 
H       1.38530811      -1.86841472      -1.06027220 
H      -0.78164647       1.73306564      -1.71448248 
H       0.34240952       1.69943654      -0.33214016 
