12
Properties=species:S:1:pos:R:3 0.000845329142=T gnorm:=T pbc="F F F" -21.561952888743=T energy:=T xtb:=T 6.2.3=T 830e466=T
C       1.74011372       1.51101096      -2.40341356 
C      -0.18674878      -0.13175861      -1.09843856 
C       1.10117846      -0.11680854      -0.80531155 
O       0.86394768       2.54651832      -2.08205206 
O       1.53032415       3.58792835      -1.39563025 
O       2.07758794       0.68141190      -1.33220801 
H       1.29385608       3.46284224      -0.46337659 
H       2.69015874       1.90601021      -2.78129884 
H       1.20948948       0.95585498      -3.18984254 
H       1.54309584      -0.77245782      -0.06789604 
H      -0.83902098      -0.82686464      -0.60447759 
H      -0.63498233       0.53592264      -1.81207442 
