12
Properties=species:S:1:pos:R:3 6.2.3=T gnorm:=T pbc="F F F" -21.510035009050=T energy:=T xtb:=T 0.000764708157=T 830e466=T
C       1.35038757       1.71270005      -1.15411406 
C       0.76292681       0.56677629      -0.77823372 
C       1.57512994      -0.60819916      -0.51321453 
O       0.64710590       2.81563459      -1.41031048 
O       1.48240339       3.89628922      -1.79851658 
O       2.77862007      -0.66461545      -0.59757672 
H       0.84964143       4.60026323      -2.00107665 
H       2.42699528       1.77915362      -1.26513350 
H       0.09734423       0.13823695      -3.47033556 
H       0.98460329      -1.49675892      -0.21939938 
H      -0.25933360       0.10278368      -4.16127760 
H      -0.30692431       0.49743590      -0.66652122 
