12
Properties=species:S:1:pos:R:3 6.2.3=T gnorm:=T pbc="F F F" -21.510315397935=T 0.000736596314=T energy:=T xtb:=T 830e466=T
C       0.78903672       1.89430628      -1.03035495 
C      -0.06387258       0.99860980      -0.55996909 
C       1.82635861      -0.70675367      -1.80252649 
O       0.55217664       2.53392167      -2.20657466 
O       1.66308586       3.33646442      -2.58154155 
O       2.51887698      -0.99002320      -0.87075667 
H       1.27026316       3.97852859      -3.18791702 
H       1.70531052       2.17957219      -0.53234211 
H       2.12778044       0.02357121      -2.56996212 
H       0.85168216      -1.18612960      -1.98828156 
H      -0.96788505       0.75595318      -1.08869262 
H       0.11618652       0.52177913       0.38300883 
