12
Properties=species:S:1:pos:R:3 0.000560636075=T 6.2.3=T gnorm:=T pbc="F F F" energy:=T xtb:=T -21.649965387091=T 830e466=T
C       0.84506077       1.68476492      -2.04269658 
C       0.72367274       0.79427043      -0.79979023 
C       1.25406822      -0.58788028      -1.05656076 
O       2.20801932       1.80142360      -2.33143231 
O       0.24944311       2.93174162      -1.86267330 
O       1.91273627      -1.22575051      -0.28977593 
H       0.67165008       3.37798184      -1.11697176 
H       2.32692268       2.37083174      -3.10086640 
H       0.29979705       1.23230613      -2.88698775 
H       0.96404746      -0.99397726      -2.04515144 
H      -0.33384311       0.71189303      -0.53721491 
H       1.26731539       1.24209474       0.03424137 
