12
Properties=species:S:1:pos:R:3 6.2.3=T gnorm:=T pbc="F F F" energy:=T 0.000773344585=T 830e466=T xtb:=T -21.613416060262=T
C       1.05509369       1.21005229      -1.44159416 
C       0.32150641       0.16504092      -0.64337489 
C       1.03103222      -1.16628114      -0.73824001 
O       0.52329615       1.98101149      -2.18915698 
O       2.06516677       4.28836252      -3.11244362 
O       2.20232663      -1.32257464      -0.56102709 
H       1.51112901       4.87895844      -3.62659173 
H       2.14575851       1.20115532      -1.28400270 
H       1.51654131       3.52617396      -2.88859587 
H       0.36561312      -2.00902027      -0.99915905 
H      -0.72102320       0.10019402      -0.95321797 
H       0.37255938       0.48641708       0.40161408 
