12
Properties=species:S:1:pos:R:3 0.000345813733=T -21.564886000799=T gnorm:=T pbc="F F F" energy:=T xtb:=T 6.2.3=T 830e466=T
C       1.52905691       1.28105060      -2.53467129 
C       0.79328624       0.08473812      -1.98472098 
C       0.62181695      -0.17875822      -0.69175681 
O       0.87485427       2.52676296      -2.37362760 
O       1.09480572       3.02117645      -1.04651871 
O       1.02089577       0.56631231       0.35184273 
H       0.45008613       3.73709135      -0.98518618 
H       2.53954069       1.35822854      -2.10870546 
H       1.61344490       1.19767223      -3.61995422 
H       0.11576274      -1.07794920      -0.36690773 
H       0.38483788      -0.60061898      -2.70732931 
H       1.35061180       1.42379386       0.03183556 
