12
Properties=species:S:1:pos:R:3 6.2.3=T gnorm:=T pbc="F F F" -21.513250490494=T energy:=T 0.000858855231=T xtb:=T 830e466=T
C       0.05115238       1.43552669      -2.38127870 
C      -0.39178056       1.11247179      -1.18204134 
C       2.44481295      -0.28331848      -0.93831915 
O       1.06597920       2.28014471      -2.70841552 
O       1.72481665       2.84832136      -1.58733197 
O       2.10663572      -1.06670628      -0.10228976 
H       1.66840922       3.80069672      -1.74963276 
H       2.81290575       0.72653501      -0.70035824 
H      -0.34958661       1.05742930      -3.31187613 
H       2.41543101      -0.51714579      -2.01650328 
H      -1.20735948       0.42600538      -1.06864251 
H       0.04768376       1.51953960      -0.28921063 
