12
Properties=species:S:1:pos:R:3 -21.511805440727=T gnorm:=T pbc="F F F" energy:=T 0.000309269779=T xtb:=T 6.2.3=T 830e466=T
C       0.56782662       1.59082390      -1.84760984 
C       0.82795544       1.15108640      -0.61315444 
C       0.97192069      -0.26353423      -0.32656282 
O       0.40906663       2.84733428      -2.26658972 
O       0.53512968       3.81269060      -1.23175236 
O       1.21729045      -0.73208107       0.75674428 
H       0.41240995       4.64551978      -1.70920110 
H       2.57370482      -0.61978098      -3.19500324 
H       0.44933764       0.93764214      -2.70467508 
H       0.83442625      -0.91716763      -1.21300018 
H       2.65141664      -0.95743343      -3.89161122 
H       0.93851519       1.84450023       0.20661573 
