12
Properties=species:S:1:pos:R:3 0.000954426772=T gnorm:=T pbc="F F F" -21.600520030025=T energy:=T xtb:=T 6.2.3=T 830e466=T
C       1.18286403       0.11901127      -2.51180123 
C       0.45270032       0.51753074      -1.22571461 
C       1.38993780       1.27590057      -0.32842492 
O       1.59080889       2.59015791      -0.59285257 
O       0.85454619       3.12709273      -1.67792651 
O       2.00374349       0.82656925       0.59512930 
H       1.11987971       4.05886374      -1.65521652 
H       2.05825267      -0.48177689      -2.27702007 
H       1.49807919       1.00218329      -3.06154953 
H       0.51866176      -0.46323822      -3.14469952 
H      -0.40895726       1.14074673      -1.46725887 
H       0.12838321      -0.37353113      -0.68843496 
