12
Properties=species:S:1:pos:R:3 6.2.3=T gnorm:=T pbc="F F F" energy:=T -21.670570158448=T xtb:=T 830e466=T 0.000776846523=T
C       1.24148241       0.95572948      -2.52181497 
C       0.58273627       0.82501603      -1.13519931 
C       1.53490182       1.30282467      -0.05551889 
O       0.33843598       0.69256834      -3.56290420 
O       1.67973082       2.63682962       0.02006712 
O       2.14145505       0.57364807       0.67121713 
H       1.12769239       3.11106132      -0.61602140 
H       2.11363512       0.28999720      -2.57320583 
H       1.58320250       1.98169154      -2.69157809 
H       0.04713512      -0.22431094      -3.50786054 
H       0.33618923      -0.22050942      -0.94281153 
H      -0.33749671       1.41505409      -1.12015950 
