12
Properties=species:S:1:pos:R:3 0.000385006140=T 6.2.3=T gnorm:=T pbc="F F F" -21.579051728032=T energy:=T xtb:=T 830e466=T
C       1.80605970       1.35031854      -2.31831176 
C       0.20434827       0.07642692      -0.78632701 
C       1.58678607       0.18735375      -1.34666952 
O       0.76194385       2.28288895      -2.39939896 
O       0.69274683       3.05425270      -1.20343928 
O       2.49176433      -0.56277277      -1.08839552 
H       0.61694917       3.96152990      -1.52822749 
H       2.76089227       1.83719293      -2.07988941 
H       1.86930848       0.94307113      -3.33255735 
H       0.10116826      -0.83738386      -0.20911175 
H      -0.52301096       0.10689647      -1.59442929 
H       0.02002372       0.93991535      -0.14903265 
