12
Properties=species:S:1:pos:R:3 -21.513236048619=T gnorm:=T pbc="F F F" 0.000776180738=T energy:=T xtb:=T 6.2.3=T 830e466=T
C       1.50120903       1.55914260      -2.84334302 
C       1.03480761       0.49657836      -1.87665954 
C       1.71953570       0.16733389      -0.82744397 
O       1.04322111       2.84716339      -2.51276930 
O       1.75410074       3.31696047      -1.36618461 
O       2.35983323      -0.17101525       0.08008113 
H       1.27019165       4.12174441      -1.14155637 
H       2.59472522       1.56390753      -2.91092287 
H       1.06652806       1.38895855      -3.83027436 
H      -1.32622768      -1.17078840       0.74312438 
H       0.03053330       0.12671585      -1.98985231 
H      -0.65935798      -0.90719141       0.43999084 
