12
Properties=species:S:1:pos:R:3 6.2.3=T gnorm:=T pbc="F F F" 0.000400674761=T -21.522099687789=T energy:=T xtb:=T 830e466=T
C       0.73285254       1.30877953      -2.71514215 
C       0.51647297       0.48879953      -1.44261272 
C       1.67363058       0.74639961      -0.47662142 
O       1.07744825       2.66383119      -2.39845238 
O       0.96248497       2.89070004      -1.02664688 
O       1.93600357       2.15053548      -0.35510201 
H       2.59838027       0.29318748      -0.85122213 
H       1.57079975       0.90733583      -3.29615122 
H      -0.16986069       1.31737562      -3.33534442 
H       1.45015339       0.34887960       0.51919396 
H       0.46166995      -0.57000012      -1.68557966 
H      -0.42095557       0.79377621      -0.97201898 
