12
Properties=species:S:1:pos:R:3 gnorm:=T 6.2.3=T 0.001003724435=T pbc="F F F" energy:=T xtb:=T -21.604377437714=T 830e466=T
C       1.17687997       0.96384492      -2.82184794 
C       0.12440561       0.99522614      -1.71525945 
C       1.06713684       1.06250133      -0.51164550 
O       2.22971316       0.18735731      -2.30000942 
O       1.38023872       2.40094909      -0.26570614 
O       2.18859008       0.31048044      -0.86737327 
H       2.17273604       2.44292770       0.28063121 
H       1.52215954       1.98172186      -3.04800706 
H       0.84724371       0.46441804      -3.73289593 
H       0.65994651       0.58837183       0.39566094 
H      -0.45817482       0.07633106      -1.69064613 
H      -0.52186536       1.86536027      -1.75860131 
