12
Properties=species:S:1:pos:R:3 -21.536394548835=T 6.2.3=T gnorm:=T pbc="F F F" 0.000817001658=T energy:=T xtb:=T 830e466=T
C       2.36033424       2.25481160      -0.58835603 
C       1.28634952       2.45646783       0.15407697 
C       0.24412935      -0.92984685      -3.27468346 
O       0.74134883      -0.05124036      -2.39936412 
O      -0.06857800       1.09654591      -2.26572173 
O       0.79631956      -1.95516050      -3.50964879 
H       0.42212009       1.62029004      -1.59224345 
H       2.74465407       3.01158945      -1.25349706 
H       2.90646259       1.32595150      -0.56184541 
H      -0.70735273      -0.58808502      -3.72068305 
H       0.91487363       1.70685692       0.83477287 
H       0.74824885       3.39130947       0.14139327 
