12
Properties=species:S:1:pos:R:3 6.2.3=T gnorm:=T 0.000626971695=T pbc="F F F" energy:=T xtb:=T 830e466=T -21.563364776964=T
C       1.02815592       0.96097674      -1.82920782 
C       0.09594232       1.13364226      -0.62348316 
C       1.71658345      -0.38709957      -1.77122688 
O       2.01992839       1.95310701      -1.89193817 
O       1.41666559       3.19237345      -2.26819846 
O       2.88977687      -0.59293015      -1.82915971 
H       2.19111831       3.75401415      -2.40108881 
H       0.66670470       1.06282242       0.29898463 
H       0.42966228       0.98426839      -2.75554907 
H       0.97986380      -1.20777498      -1.65756146 
H      -0.67715395       0.37140313      -0.63253963 
H      -0.36833768       2.11490713      -0.67482145 
