12
Properties=species:S:1:pos:R:3 6.2.3=T gnorm:=T pbc="F F F" -21.563364760628=T energy:=T 0.000447872067=T xtb:=T 830e466=T
C       2.02588697       1.08139706      -2.31383980 
C       0.69672237       0.98711745      -1.55398028 
C       0.56359357      -0.37400135      -0.90307933 
O       0.57754383       1.96335587      -0.55169241 
O       0.38146071       3.23851877      -1.16539622 
O       0.35018531      -0.59801835       0.24896457 
H       0.20067787       3.79832870      -0.39946221 
H       2.10931633       2.07060635      -2.75630971 
H       2.06482258       0.33325009      -3.09983565 
H       0.70019059      -1.18654192      -1.64556920 
H      -0.13707836       1.09319878      -2.26831173 
H       2.85567821       0.93239854      -1.62729803 
