  44
        -73.07150502
 C          0.9740842746        2.6362209979       -0.6806897850
 C          1.9290242146        3.6925777738       -0.1404265835
 C          0.2975846929        1.9092486040        0.4886178746
 O          0.9492668434        1.2010556844        1.2467774487
 O         -0.0041964927        0.1969376982       -1.2543951004
 O          3.2307789575       -0.3261670320        0.0938737932
 N          1.6999444536        1.6377590084       -1.4418936563
 C          1.1453851377        0.4136674011       -1.5969975756
 C          2.1042357701       -0.6453342738       -2.0971474432
 C          2.7071487264       -1.2745766762       -0.8009862464
 N          1.4258552412       -1.5903166292       -2.9507711798
 N         -0.9993115570        2.1931122110        0.6753459341
 C         -1.7941979231        1.5584179727        1.7158402282
 C         -3.0863113191        2.3312175479        1.9208778316
 C         -2.0799959051        0.1042366856        1.3042887553
 O         -3.1472323135       -0.2492189138        0.8193213586
 N         -1.0621113211       -0.7268812317        1.5373220168
 O         -0.1721090546       -3.0270959679       -0.7736282879
 O         -2.1292297160       -2.0089902269       -0.9352853890
 C         -1.1307952927       -2.1529375629        1.2612437805
 C         -1.0802622031       -2.4305926062       -0.2603633647
 C         -0.0123164809       -2.8681374865        2.0015278212
 H          0.2119919424        3.0948069989       -1.3245556554
 H          2.4596286138        4.1722953587       -0.9593760345
 H          2.6483982298        3.2282045219        0.5309031948
 H          1.3769517275        4.4501432719        0.4100021335
 H          2.5073714147        0.1449565937        0.5417368711
 H          2.6951562219        1.7524062413       -1.5533187593
 H          2.9127639534       -0.1721293912       -2.6688544144
 H          3.5432176458       -1.9220555733       -1.0806259391
 H          1.9278100642       -1.8912174927       -0.3375600611
 H          0.5620624040       -1.8919147530       -2.5068145268
 H          1.9977996788       -2.4174017128       -3.0841749639
 H         -1.5213035218        2.5983169402       -0.0866958588
 H         -1.1859656578        1.5541744643        2.6276942815
 H         -2.8758856138        3.3813748427        2.1057411642
 H         -3.6277924975        1.9233984130        2.7696165008
 H         -3.7166871828        2.2331733865        1.0400850574
 H         -0.1480763753       -0.3285763700        1.7349294256
 H         -2.7227465128       -1.4321384221       -0.3912558435
 H         -2.1119624823       -2.5053783431        1.6130448641
 H         -0.0476932987       -3.9313966876        1.7824593673
 H         -0.1129592368       -2.7195745441        3.0737130709
 H          0.9543460139       -2.4880033220        1.6803237285
44

C                     1.00681853           2.82235531          -0.64544665         
C                     1.95231174           4.01674604          -0.46909832         
C                     0.30329222           2.50052429           0.65524508         
O                     0.97025560           2.34062785           1.66995099         
O                    -0.14206476           0.42572733          -1.34023130         
O                     3.80814018          -0.26778696          -0.07704429         
N                     1.73430844           1.61429494          -1.01682099         
C                     1.07619099           0.43162609          -1.23275159         
C                     1.81059202          -0.88877609          -1.33086976         
C                     2.76232297          -1.19867227          -0.16086921         
N                     0.88591784          -2.00797914          -1.53012971         
N                    -1.01107047           2.15062793           0.62857564         
C                    -1.64782673           1.43818697           1.72037209         
C                    -3.00709117           2.07757313           2.02665406         
C                    -1.74261212          -0.03177100           1.32019666         
O                    -2.83929909          -0.56997482           1.24841055         
N                    -0.59799999          -0.74151738           1.04289704         
O                    -0.68999677          -3.52218863          -1.19094561         
O                    -2.83275923          -1.78932147          -2.34075169         
C                    -0.58646042          -2.16080596           0.69493912         
C                    -0.10256818          -2.55321771          -0.72745632         
C                     0.10777950          -2.98471268           1.78578512         
H                     0.27722000           3.06426500          -1.44994423         
H                     2.47146638           4.23363323          -1.42613996         
H                     2.72087348           3.79845529           0.30486167         
H                     1.38073039           4.91744765          -0.16014824         
H                     3.61915934           0.31953448           0.70153230         
H                     2.76244061           1.64097938          -1.02789999         
H                     2.45432374          -0.81073754          -2.23680646         
H                     3.22383858          -2.19446208          -0.33398840         
H                     2.22436026          -1.26071968           0.79711502         
H                    -1.96814179          -1.56257834          -2.76713508         
H                     1.01076337          -2.47501785          -2.44363269         
H                    -1.52831776           2.21869703          -0.26196136         
H                    -1.03632345           1.48070699           2.64813927         
H                    -2.86813851           3.13825627           2.32505547         
H                    -3.50702639           1.53869556           2.85935598         
H                    -3.66426111           2.04392913           1.13050398         
H                     0.30263028          -0.25923196           1.14177952         
H                    -2.77708619          -1.38554374          -1.43856159         
H                    -1.63549189          -2.53189748           0.73573399         
H                    -0.00647023          -4.06989826           1.57720944         
H                    -0.36775270          -2.77267800           2.76814939         
H                     1.18468673          -2.76573343           1.87564090         
