  48
        -77.54972382
 C          2.8141120746       -1.2032730409        0.6481465225
 C          4.2686489335       -1.0780529140        0.2241911925
 C          1.9924215393       -1.9496734336       -0.4205599425
 O          2.4279668297       -2.2382120730       -1.5141745771
 O          0.8309864746       -0.5243194733        2.4851835893
 O          1.7578148570        2.6732693280       -0.1161306358
 N          2.2447035436        0.1170938693        0.8641690856
 C          1.3371877020        0.3651264767        1.8193163201
 C          0.9631077311        1.8411512248        2.0387160743
 C          1.8547853276        2.8311042686        1.2801573085
 N         -0.4019064703        2.0333269471        1.5723306463
 N          0.7300871788       -2.2017509317       -0.0213627969
 C         -0.2438823347       -2.8309536275       -0.8858695817
 C         -1.1136438802       -3.8043391596       -0.1006382902
 C         -1.1415210691       -1.8134082515       -1.6125610938
 O         -2.1872830276       -2.1279841573       -2.1326815408
 N         -0.6514899642       -0.5549077721       -1.6377724623
 O         -1.7175785185        2.5911522982       -0.8279147002
 S         -2.6824973649        0.4013877572        0.2453028952
 C         -1.3988066743        0.5720229990       -2.1422633411
 C         -1.8764736753        1.4055997500       -0.9587771399
 C         -0.5682872456        1.4050401547       -3.1103380111
 H          2.7238434351       -1.7477137021        1.5958921968
 H          4.3320782685       -0.5714102150       -0.7359057297
 H          4.7010250844       -2.0676551682        0.1101681062
 H          4.8366603111       -0.5231966501        0.9665594941
 H          0.8256794989        2.7595518459       -0.3632694880
 H          2.5346765439        0.8545434601        0.2352054404
 H          1.0640159601        2.0300904709        3.1244906049
 H          2.9058530693        2.6874728666        1.5419254708
 H          1.5695925563        3.8534246208        1.5683817010
 H          0.4380769204       -1.9302367815        0.9103810697
 H          0.3202396764       -3.3616578274       -1.6642505236
 H         -1.5986112825       -3.2848355458        0.7233799620
 H         -0.5155270094       -4.6212828758        0.2938251074
 H         -1.8828436869       -4.2016470707       -0.7561163054
 H          0.2301018612       -0.3569589630       -1.1906414425
 H         -2.2812611993        0.1487812797       -2.6411077283
 H         -1.1366629124        2.2720938424       -3.4345323907
 H         -0.3025628319        0.8065805932       -3.9768754956
 H          0.3441184278        1.7498517538       -2.6276137136
 C         -1.4548612511        1.5175564623        2.4228030668
 H         -0.5753090285        3.0206895913        1.3983534301
 C         -2.7664238795        1.5544960613        1.6525366933
 H         -1.5669795135        2.0948799797        3.3574410315
 H         -1.2053175882        0.4874122503        2.6871659920
 H         -2.9597488313        2.5452590234        1.2402919334
 H         -3.6008759276        1.2302863591        2.2700290056
48

C                     2.94609403          -1.39919447           0.73961465         
C                     4.41073427          -1.31542490           0.28795498         
C                     2.08967455          -2.25693527          -0.17072199         
O                     2.55070779          -2.73567789          -1.20030958         
O                     1.81285014           0.02479586           2.87985087         
O                     1.90967197           2.70060748          -0.39444351         
N                     2.33446900          -0.07364111           0.70279287         
C                     1.72223064           0.52314068           1.76467966         
C                     0.82186025           1.74830898           1.58731720         
C                     1.55016443           2.95103786           0.93905709         
N                    -0.42807567           1.29099446           0.91568588         
N                     0.75674122          -2.35005473           0.11175784         
C                    -0.24688143          -2.78560748          -0.84612764         
C                    -1.08086306          -3.91623202          -0.23765001         
C                    -1.09570748          -1.55759017          -1.18488770         
O                    -2.31236872          -1.62894357          -1.24997637         
N                    -0.46208397          -0.35589267          -1.31245198         
O                    -1.01031774           3.03527800          -0.37738845         
S                    -3.90245708           1.13190260           0.37515979         
C                    -1.08945750           0.93936947          -1.50475131         
C                    -0.82601160           1.82777357          -0.28276563         
C                    -0.44875032           1.57229553          -2.74707490         
H                     2.92162215          -1.84007332           1.75968111         
H                     4.48781107          -0.88502444          -0.73441238         
H                     4.87159915          -2.32689943           0.28487098         
H                     4.98480686          -0.67107016           0.98666010         
H                     1.65957482           3.50116473          -0.92575929         
H                     2.28611716           0.37856412          -0.21921501         
H                     0.59169306           2.11262074           2.61213913         
H                     2.46773363           3.18641344           1.51831303         
H                     0.88255672           3.84100864           1.01302348         
H                     0.41183086          -1.93639341           0.99280299         
H                     0.23549639          -3.14587260          -1.78195669         
H                    -1.57930280          -3.55812722           0.69026823         
H                    -0.42624231          -4.77446360           0.02233380         
H                    -1.85679171          -4.26062923          -0.95264860         
H                     0.55678668          -0.33762547          -1.23303012         
H                    -2.17601508           0.85506460          -1.69433380         
H                    -0.89135215           2.56974304          -2.95190147         
H                    -0.61208019           0.92407546          -3.63293235         
H                     0.64746756           1.69540695          -2.60094403         
C                    -1.51024438           0.90577192           1.86332206         
H                    -3.85958294           2.37048187          -0.29081467         
C                    -2.84841081           1.68376905           1.75524947         
H                    -1.19417201           1.10163203           2.91195084         
H                    -1.69674456          -0.18551242           1.82313469         
H                    -2.67996432           2.78295741           1.72837740         
H                    -3.45898792           1.49848299           2.66548636         
