  56
        -94.15646560
 C         -2.2265127300        0.6535420981       -1.8066696109
 C         -1.3118128657        0.6037331592       -3.0285544232
 C         -1.7809661784        1.7982084691       -0.8913793601
 O         -1.3926800264        2.8641137399       -1.3552525759
 O         -4.4704934307       -0.9456356852       -1.2302344478
 O         -2.1603702959       -1.0257235760        1.7492538315
 N         -2.2361783690       -0.6135552584       -1.1160813324
 C         -3.3710889831       -1.2882722312       -0.8412613845
 C         -3.1788075055       -2.5059263548        0.0701529351
 C         -3.1686941818       -1.9754959651        1.5196188298
 N         -4.2449815610       -3.4804344357       -0.0583114795
 N         -1.8546211631        1.5598332730        0.4234227875
 C         -1.3225049904        2.4872449382        1.4123326663
 C         -1.8628252771        2.1478405232        2.7886958237
 C          0.1974621007        2.3146228777        1.3219272930
 O          0.8416715686        1.5601891466        2.0279725268
 N          0.7570419072        3.0158102523        0.3108408463
 O          1.2193368289        0.4567549808       -0.7051502230
 O          3.2718191480        0.6049016533        0.2076342531
 C          2.0882550130        2.6299896408       -0.1100285368
 C          2.1163408463        1.1092635003       -0.2309116251
 C          2.4203967859        3.2614281192       -1.4562634787
 H         -3.2619442908        0.8486413709       -2.1146582752
 H         -0.3029554513        0.3443678694       -2.7133671070
 H         -1.2919473235        1.5801861585       -3.5036787926
 H         -1.6687634536       -0.1368409436       -3.7389988793
 H         -1.3024822372       -1.4285373335        1.5133190762
 H         -1.3441315990       -0.9657759216       -0.7991234445
 H         -2.2197368463       -2.9924019542       -0.1380314270
 H         -3.0694638030       -2.8299328563        2.2001671872
 H         -4.1183129972       -1.4747721029        1.7270319130
 H         -5.1342447507       -2.9879010133       -0.0172527914
 H         -4.2008125325       -3.9203416266       -0.9721215941
 H         -2.1022799708        0.6366117135        0.7781001018
 H         -1.5917940531        3.5061919849        1.1114694806
 H         -2.9463831401        2.2271500755        2.7955900648
 H         -1.4490582510        2.8292149828        3.5269221787
 H         -1.5799778346        1.1316796903        3.0510215161
 H          0.1204786473        3.3618830217       -0.4101325971
 H          2.8164393975        2.9210472384        0.6561092836
 H          3.4166308676        2.9690195701       -1.7780531934
 H          2.3807613763        4.3438629145       -1.3694227554
 H          1.6948724548        2.9407794711       -2.2008895635
 C          3.5247598392       -0.7533886468        0.0799717501
 C          2.5551717153       -1.7258296907        0.3395807437
 C          4.7881223851       -1.1206710501       -0.3584399536
 C          2.8698007222       -3.0646832681        0.1114242285
 C          4.1314618763       -3.4311362707       -0.3141677481
 C          5.0943808111       -2.4586195607       -0.5356839193
 H          5.5168659196       -0.3496548471       -0.5532278570
 H          4.3659517846       -4.4721162238       -0.4737185247
 H          6.0840279323       -2.7392654718       -0.8617766343
 H          2.1069060578       -3.8059267058        0.2959077665
 C          1.2323178821       -1.3692644414        0.8763714317
 O          0.2145338225       -1.9819335568        0.6325431840
 H          1.2301025767       -0.5346856372        1.5960048987
