  56
        -94.15214173
 C         -1.5382735389       -2.7849973335       -1.7873094739
 C         -2.0386417682       -2.8074583840       -3.2219071377
 C         -2.5188925547       -2.0299751788       -0.8698259907
 O         -3.4181322518       -1.3240520505       -1.2964067917
 O          0.4102137648       -2.9725349433        0.2685262167
 O          2.8802142950       -2.2646594102        1.2116434092
 N         -0.2370912110       -2.1440338320       -1.7298381184
 C          0.6238590212       -2.2758186052       -0.7220784746
 C          1.9156156048       -1.4835089241       -0.9026323621
 C          3.0801654313       -2.1840859129       -0.1685621130
 N          2.1608334866       -1.2501455438       -2.3174725210
 N         -2.2846328370       -2.2457125275        0.4317858284
 C         -2.9785310107       -1.5154967924        1.4831480347
 C         -2.7533554163       -2.1982020880        2.8202996632
 C         -2.3957281048       -0.0958999862        1.4641078149
 O         -1.4696087889        0.2581924935        2.1674887062
 N         -2.9660951101        0.7100171688        0.5433033609
 O         -0.3853802832        0.6660305759       -0.5375436717
 O         -0.0239740469        2.5371333068        0.6554252371
 C         -2.2822568472        1.9493175724        0.2175974731
 C         -0.7972540195        1.6176017836        0.0731055420
 C         -2.8256064870        2.5271953962       -1.0815412781
 H         -1.4210634410       -3.8034383661       -1.3951190627
 H         -2.9793931494       -3.3479509998       -3.2752439494
 H         -1.3122757910       -3.2900698596       -3.8704196473
 H         -2.2124864359       -1.7906587495       -3.5650783406
 H          2.0067102449       -2.6749877581        1.3361552073
 H          0.0018228726       -1.4558643829       -2.4313754485
 H          1.7339005757       -0.5135559651       -0.4243155198
 H          4.0023817065       -1.6126954480       -0.3202899307
 H          3.2180894249       -3.1889622568       -0.6033410936
 H          2.4998597419       -2.1010940603       -2.7567496392
 H          2.8705388380       -0.5369508586       -2.4384399423
 H         -1.4089105292       -2.6997857228        0.6899125727
 H         -4.0420337666       -1.4780323474        1.2222183734
 H         -1.7006079769       -2.1367766817        3.0857711373
 H         -3.0528180114       -3.2415475853        2.7679321068
 H         -3.3317932414       -1.6989370505        3.5926378987
 H         -3.5058232284        0.2652910500       -0.1967727956
 H         -2.3968141974        2.6567712084        1.0470348847
 H         -2.6701980081        1.8184516284       -1.8921987359
 H         -2.3189757114        3.4581874643       -1.3221351545
 H         -3.8901757610        2.7222034758       -0.9805464738
 C          1.3285182371        2.2394638521        0.8013403180
 C          2.2937064048        3.0522340628        0.1966003512
 C          1.6996883587        1.1455007778        1.5668097417
 C          3.6418624380        2.7382815429        0.3862429309
 C          4.0133569742        1.6476689979        1.1459162284
 C          3.0428700866        0.8516936043        1.7387844224
 H          0.9286940937        0.5407452249        2.0210600923
 H          5.0583594507        1.4131105154        1.2804832529
 H          3.3237967472       -0.0146430514        2.3167668509
 H          4.3763250155        3.3746251309       -0.0848860111
 C          1.9151875143        4.2031250193       -0.6305217047
 O          2.6871739417        4.9067786520       -1.2309925608
 H          0.8247551480        4.3865770621       -0.6691334504
