  56
        -94.15210518
 C         -2.8874975432        0.5624826000       -1.2190850525
 C         -2.5393071133        0.5014681556       -2.7054562836
 C         -1.9349226487        1.5290891024       -0.5060048791
 O         -1.6825336234        2.6260928677       -0.9905699501
 O         -4.9658268059       -0.6125577785        0.2731025428
 O         -1.6464386608       -1.6069718669        1.8470523312
 N         -2.8943852310       -0.7538838017       -0.6303218868
 C         -3.9233994068       -1.2144735148        0.1089194473
 C         -3.6519580863       -2.5651609058        0.7863557048
 C         -2.8639763944       -2.2721899092        2.0800909511
 N         -4.8662220080       -3.2736069211        1.1389805371
 N         -1.4088284217        1.1016256917        0.6467265744
 C         -0.5754610169        1.9403934914        1.4939664326
 C         -0.5534868568        1.3796327618        2.9050058672
 C          0.8485023427        2.0290012553        0.9141981111
 O          1.8204278698        1.4900743024        1.4138924715
 N          0.9254047087        2.7609972027       -0.2032846756
 O          4.2601538603        1.9407895644       -0.1332497869
 O          2.5842798042        0.6537656044       -0.9792153344
 C          2.1977487872        2.9729864610       -0.8638842979
 C          3.1457479165        1.8139107130       -0.5460171624
 C          1.9952137114        3.0938847640       -2.3713904799
 H         -3.9001121633        0.9680276678       -1.0921554614
 H         -3.3056583867       -0.0413705031       -3.2517177743
 H         -1.5841875646       -0.0019778657       -2.8470322782
 H         -2.4657331348        1.5115747277       -3.0982944289
 H         -1.1024336845       -2.1488421765        1.2562602914
 H         -2.0555040284       -1.3149815341       -0.7313519897
 H         -3.0440272321       -3.2014183723        0.1326833057
 H         -2.7034694590       -3.2174766587        2.6116872234
 H         -3.4534365234       -1.6104318995        2.7196627882
 H         -5.3438525138       -3.5805818397        0.2976510797
 H         -5.4933533832       -2.6229337625        1.6060403248
 H         -1.6327854073        0.1804695268        1.0171757355
 H         -0.9946423987        2.9559299856        1.4809412190
 H         -0.1535927444        0.3689991985        2.8941358433
 H         -1.5583844162        1.3596294613        3.3180082366
 H          0.0817527403        1.9948442376        3.5356626425
 H          0.0634717885        3.0879986976       -0.6433088478
 H          2.6728175592        3.8830338325       -0.4704617037
 H          1.3247986039        3.9229432498       -2.5842759346
 H          1.5596723842        2.1798329438       -2.7672411991
 H          2.9468424581        3.2756615673       -2.8638211309
 C          3.0532636679       -0.5806010953       -0.6201798383
 C          2.0845004786       -1.5999807829       -0.5084418139
 C          4.3879698648       -0.8725995568       -0.3778312907
 C          2.4852929667       -2.8899908367       -0.1480497287
 C          3.8123908869       -3.1711638522        0.0916270718
 C          4.7562327560       -2.1596633004       -0.0225174163
 H          5.1292544337       -0.0944625412       -0.4488130573
 H          4.1162144045       -4.1687382209        0.3687012490
 H          5.7975076721       -2.3731170807        0.1662468343
 H          1.7264179025       -3.6542058723       -0.0681584786
 C          0.6846246873       -1.3046663059       -0.7370871937
 O         -0.2396443639       -2.0735412401       -0.5426033358
 H          0.4858004495       -0.2867878978       -1.1094229355
