  56
        -94.15210213
 C         -2.9164267948        0.5829600848       -1.1793013984
 C         -2.6114969311        0.5386536669       -2.6755812682
 C         -1.9420055994        1.5389358156       -0.4815381278
 O         -1.6960221302        2.6390021034       -0.9624992436
 O         -4.9485544838       -0.6006933894        0.3692354005
 O         -1.5867972720       -1.6267398340        1.8240629991
 N         -2.9099986850       -0.7403385264       -0.6062691244
 C         -3.9152282840       -1.2052102039        0.1623040171
 C         -3.6275021554       -2.5651084204        0.8142192914
 C         -2.7988668664       -2.2910687161        2.0864918350
 N         -4.8326313299       -3.2741913272        1.1956791638
 N         -1.3918650810        1.1000208044        0.6555455297
 C         -0.5438660144        1.9310784434        1.4957523588
 C         -0.5008539352        1.3592747213        2.9019350986
 C          0.8709313815        2.0248051770        0.8956351097
 O          1.8529350860        1.4937902503        1.3843455473
 N          0.9289500132        2.7516628718       -0.2261416479
 O          4.2670008819        1.9412624387       -0.1982377463
 O          2.5791898295        0.6471328817       -1.0107469772
 C          2.1921943427        2.9663353575       -0.9032008829
 C          3.1462431984        1.8102717211       -0.5921858163
 C          1.9711252557        3.0819823187       -2.4084734740
 H         -3.9237745633        0.9896210201       -1.0181740523
 H         -3.3956993607        0.0058848232       -3.2061909295
 H         -1.6632414450        0.0328539897       -2.8505729587
 H         -2.5444653375        1.5531810556       -3.0580435099
 H         -1.0642131274       -2.1623995033        1.2086974974
 H         -2.0770231222       -1.3029937912       -0.7420744811
 H         -3.0423065670       -3.1948893036        0.1340812740
 H         -2.6251158683       -3.2435059268        2.6009179310
 H         -3.3658738456       -1.6357029018        2.7523726975
 H         -5.3368864696       -3.5699136107        0.3659504359
 H         -5.4429148375       -2.6272700904        1.6895055006
 H         -1.6066987107        0.1744267827        1.0201178811
 H         -0.9624223974        2.9470206398        1.4971602492
 H          0.1489576925        1.9658092169        3.5260834182
 H         -0.1073634405        0.3463578895        2.8763689503
 H         -1.4986052273        1.3421351742        3.3320748425
 H          0.0603343217        3.0805311651       -0.6515534618
 H          2.6694591357        3.8789650595       -0.5185637456
 H          1.2948687619        3.9077395653       -2.6156767915
 H          1.5348183847        2.1650690581       -2.7967255472
 H          2.9161484821        3.2661598520       -2.9125630689
 C          3.0366315331       -0.5855851469       -0.6331611238
 C          2.0610002709       -1.6001789554       -0.5362828275
 C          4.3632676320       -0.8805771481       -0.3527907655
 C          2.4469988744       -2.8881570781       -0.1528945002
 C          3.7661445346       -3.1723503958        0.1236267209
 C          4.7166562692       -2.1654555846        0.0245912825
 H          5.1090857710       -0.1057146159       -0.4107359827
 H          4.0584611108       -4.1683641716        0.4181142193
 H          5.7516633602       -2.3808792605        0.2431872919
 H          1.6831836384       -3.6486693117       -0.0854034118
 C          0.6682331384       -1.3026210510       -0.8015713850
 O         -0.2633336013       -2.0641039048       -0.6120778706
 H          0.4815780406       -0.2911016722       -1.1968176857
