  56
        -94.15205025
 C         -3.2777266193        0.9324418593       -0.9053256080
 C         -3.9895808994        1.0015443083       -2.2460674786
 C         -2.3120248037        2.1192756973       -0.7280950499
 O         -1.9491965192        2.8266434889       -1.6546987550
 O         -2.2595669595       -0.3344557687        1.4376386948
 O         -0.8922581623       -2.4823449290        2.5108674231
 N         -2.5298509733       -0.3061229002       -0.8072302986
 C         -2.0735734311       -0.8319397518        0.3281078724
 C         -1.2651336244       -2.1109007898        0.1231860327
 C         -1.4121974405       -3.0454014560        1.3406152707
 N         -1.6021124305       -2.7178167165       -1.1546189087
 N         -1.9319398221        2.2976131948        0.5444593956
 C         -0.9437893938        3.2935732304        0.9322870361
 C         -1.0163052765        3.5343402042        2.4298058106
 C          0.4257126473        2.7396641099        0.5158317215
 O          1.1705307533        2.1497697525        1.2727341231
 N          0.7068871193        2.9242347560       -0.7936047792
 O          0.5859217514        0.1255700060       -0.9480303754
 O          2.7447174956        0.2285223299       -0.3259282111
 C          1.8047282387        2.1571719757       -1.3593055062
 C          1.6262666482        0.7235423098       -0.8597269506
 C          1.7550398123        2.2046343902       -2.8791208108
 H         -3.9972638122        0.9532287587       -0.0763641999
 H         -4.6063677035        1.8947159226       -2.2908154438
 H         -4.6178498732        0.1261335792       -2.3872461313
 H         -3.2564534055        1.0549911396       -3.0469459255
 H         -1.3020179973       -1.6040583632        2.5939893545
 H         -2.2338756233       -0.7819437180       -1.6515622870
 H         -0.2251452341       -1.7713712207        0.0820685738
 H         -0.8531240028       -3.9695243077        1.1612140562
 H         -2.4779890631       -3.3010316674        1.4685137564
 H         -0.8144350316       -3.2373902318       -1.5262074203
 H         -2.3834720676       -3.3565319583       -1.0488401134
 H         -2.1126825235        1.5425507546        1.2062517418
 H         -1.1528788388        4.2078536366        0.3652199469
 H         -0.3327742968        4.3310754743        2.7097279942
 H         -0.7230001558        2.6289933968        2.9558622500
 H         -2.0262869460        3.8109818407        2.7202876598
 H         -0.0692417634        3.1601837226       -1.4102428424
 H          2.7544263287        2.5451190325       -0.9740228788
 H          2.5918893932        1.6549288301       -3.3023956617
 H          1.8057693098        3.2365911987       -3.2166067560
 H          0.8249495184        1.7617744439       -3.2291523977
 C          2.6362241255       -0.9414328182        0.4246625207
 C          2.2775050237       -2.1642336664       -0.1505106510
 C          2.8403505946       -0.8359936195        1.7907500462
 C          2.1453541922       -3.2797812807        0.6821736895
 C          2.3666540007       -3.1804609619        2.0390910660
 C          2.7124078555       -1.9563886197        2.5928977847
 H          3.0658995244        0.1343348110        2.2036450672
 H          2.2518714903       -4.0467671419        2.6710755151
 H          2.8636933983       -1.8686620600        3.6573966528
 H          1.8640598802       -4.2176343042        0.2263122265
 C          2.0020237558       -2.2986390566       -1.5855736526
 O          1.3601142892       -3.1953793353       -2.0744714725
 H          2.4406258377       -1.5051943408       -2.2189901637
