  56
        -94.15204987
 C          0.3297803313       -3.3712493931       -0.9829286869
 C          0.4833111016       -4.0322996598       -2.3425567929
 C         -1.1249308330       -2.9249361626       -0.7440901185
 O         -1.9509007679       -2.8393360632       -1.6391498857
 O          1.2132320056       -2.0012996200        1.3560168715
 O          2.7482242061        0.0370109957        2.4153332849
 N          1.2010462524       -2.2152783798       -0.8949494034
 C          1.5612274263       -1.6185525315        0.2398800134
 C          2.4353637770       -0.3849816745        0.0270869746
 C          3.4109872702       -0.2028350778        1.2070706097
 N          3.0669298843       -0.4377155695       -1.2817372258
 N         -1.3844862605       -2.6586902829        0.5432629825
 C         -2.6615413693       -2.1203696449        0.9884610174
 C         -2.7988757879       -2.2979097763        2.4902494694
 C         -2.6753720882       -0.6374075365        0.5930710798
 O         -2.3786694000        0.2631035551        1.3525799974
 N         -2.9990290302       -0.4265241950       -0.7022373286
 O         -0.3663719962        0.5192559729       -0.9284701845
 O         -1.2559677082        2.4673845083       -0.2416275798
 C         -2.7192868368        0.8871088904       -1.2591010419
 C         -1.3094283376        1.2547156690       -0.7963906810
 C         -2.7899126355        0.8437094756       -2.7781501194
 H          0.6101028848       -4.0611339948       -0.1762290843
 H         -0.1155605318       -4.9378416512       -2.3821442137
 H          1.5244244673       -4.2841598752       -2.5259516314
 H          0.1309041968       -3.3581528531       -3.1191703562
 H          2.0899094875       -0.6729971247        2.5088627015
 H          1.4957599280       -1.7429365644       -1.7417197173
 H          1.7308454342        0.4529691099        0.0389858862
 H          4.0503282315        0.6663779157        1.0212732117
 H          4.0519693064       -1.0979568160        1.2823817468
 H          3.2376648749        0.4963884462       -1.6378139974
 H          3.9554303554       -0.9248201402       -1.2273064873
 H         -0.5926167101       -2.5568793559        1.1782381289
 H         -3.4532318541       -2.6483514809        0.4447460752
 H         -3.7812523359       -1.9652253887        2.8136262995
 H         -2.0481556224       -1.6947655213        2.9953432351
 H         -2.6673720317       -3.3419079465        2.7617141008
 H         -2.9536675972       -1.2255915949       -1.3328812905
 H         -3.4243968314        1.6153443603       -0.8426287433
 H         -2.0397836028        0.1543762073       -3.1599963291
 H         -2.6088586330        1.8317456321       -3.1936618794
 H         -3.7744231189        0.5058463874       -3.0911627915
 C         -0.1100484988        2.7907971788        0.4837490165
 C          1.1416390014        2.9270949570       -0.1240639704
 C         -0.2459144239        2.9125503908        1.8569467505
 C          2.2489369482        3.2032017323        0.6839733172
 C          2.1122840255        3.3426600155        2.0485234875
 C          0.8633949713        3.1954457295        2.6344412811
 H         -1.2183589687        2.7504739223        2.2939115858
 H          2.9763916602        3.5459781534        2.6609286740
 H          0.7551643614        3.2812673545        3.7043577813
 H          3.2110163361        3.3019903158        0.2032814786
 C          1.3277436910        2.7530427597       -1.5691346857
 O          2.3846841855        2.5039533825       -2.0947304207
 H          0.4098098470        2.8765549994       -2.1735507384
