  56
        -94.15204432
 C          1.4312607228       -2.7310748464       -0.3567329369
 C          1.9942206034       -4.0474426060       -0.8720057770
 C         -0.0862475084       -2.6757146570       -0.6050822933
 O         -0.5328076423       -2.6122373768       -1.7398216498
 O          0.4266001761       -0.1935000584       -0.3721629369
 O          2.1653828835        3.0196956281       -1.5866541984
 N          2.0027224481       -1.6173369063       -1.0925479348
 C          1.3870522836       -0.4350720061       -1.0945910589
 C          1.9500474991        0.6165868026       -2.0362775201
 C          2.5945192399        1.7472071405       -1.1991348820
 N          2.9068493202        0.0256419464       -2.9630355749
 N         -0.8552401878       -2.7494512280        0.4886504373
 C         -2.3031578717       -2.6480289504        0.4207291118
 C         -2.9242873096       -3.3561610917        1.6146146060
 C         -2.7594472021       -1.1704620408        0.3675737753
 O         -3.4391570111       -0.6620016669        1.2343862927
 N         -2.3666290741       -0.5351206074       -0.7517288171
 O         -0.6798518598        2.3201004911       -1.2888914287
 O         -1.2659819041        1.6485612779        0.7813353995
 C         -2.6135521130        0.8747004858       -0.9743874128
 C         -1.3919334262        1.6958807827       -0.5453572539
 C         -2.9545992263        1.1312427995       -2.4348925176
 H          1.6399007246       -2.6053675582        0.7125055739
 H          1.5894149553       -4.8747618449       -0.2951982888
 H          3.0781376490       -4.0560727385       -0.7834619983
 H          1.7160272199       -4.1809287351       -1.9152212392
 H          1.1981265641        3.0444053545       -1.5018528036
 H          2.7783223623       -1.7536069886       -1.7245815040
 H          1.0764767305        1.0622628290       -2.5431342549
 H          3.6782470304        1.7243344800       -1.3378276513
 H          2.3798214203        1.5761261757       -0.1350233771
 H          3.4091625404        0.7641146967       -3.4443972961
 H          2.4144638032       -0.5131105378       -3.6699479262
 H         -0.4295880092       -2.6282423754        1.3981747358
 H         -2.6086430919       -3.1226384210       -0.5199927185
 H         -2.6240520862       -2.8621473999        2.5356390281
 H         -2.6105266443       -4.3963745464        1.6441298416
 H         -4.0070361125       -3.3092802426        1.5457676395
 H         -1.7296044324       -1.0049908070       -1.3844090759
 H         -3.4410910749        1.1478530429       -0.3067732223
 H         -2.1163463792        0.8440816384       -3.0650530252
 H         -3.1577947445        2.1866975833       -2.5925370692
 H         -3.8280341162        0.5515978348       -2.7199129245
 C         -0.0947963075        2.0784785346        1.3800471878
 C          0.6258607481        1.1391460224        2.1319452348
 C          0.3766647410        3.3716731914        1.2325533584
 C          1.8282320544        1.5239917898        2.7198414987
 C          2.2941510984        2.8179968118        2.5797812530
 C          1.5684333635        3.7378379279        1.8394540550
 H         -0.1803239418        4.0831813338        0.6431079119
 H          3.2259807273        3.1096315072        3.0395802347
 H          1.9349046153        4.7454845108        1.7189579546
 H          2.3798099833        0.7875135789        3.2850818353
 C          0.1150516750       -0.2301361295        2.2372375711
 O          0.7669148313       -1.2054527312        2.5352811194
 H         -0.9630556107       -0.3073608287        2.0306543841
