  56
        -94.15200611
 C         -0.2390379642       -2.9269584823       -1.8189030343
 C         -0.6347108522       -3.0923003366       -3.2767140369
 C         -1.4760180446       -2.6681825464       -0.9372922033
 O         -2.5631515153       -2.3557102708       -1.3924989551
 O          1.5405219647       -2.3880725166        0.3292695309
 O          3.3525902170       -0.6480644733        1.4795807205
 N          0.6913402642       -1.8204041391       -1.6862627743
 C          1.4916949269       -1.6318557982       -0.6381145117
 C          2.3679897974       -0.3860604921       -0.7449419947
 C          3.6385757788       -0.5534433056        0.1153417471
 N          2.6292959060       -0.0804918539       -2.1428374421
 N         -1.2311081020       -2.8451956826        0.3689726475
 C         -2.2071085117       -2.5032306754        1.3940739386
 C         -1.8155924516       -3.1419622939        2.7145077207
 C         -2.2028391480       -0.9692557882        1.4813836890
 O         -1.5138616838       -0.3506792771        2.2673635745
 N         -2.9909370570       -0.3753720141        0.5582787374
 O         -0.6038569094        0.6173590584       -0.5835515556
 O         -0.8586185931        2.2530494112        0.9331123350
 C         -2.7993337116        1.0447559969        0.3128711949
 C         -1.3003863455        1.2714990653        0.1488555283
 C         -3.5235890253        1.4751296551       -0.9534493023
 H          0.2652468148       -3.8260926229       -1.4422221803
 H          0.2477706956       -3.2147911081       -3.8991540342
 H         -1.1922993102       -2.2184603599       -3.6042760239
 H         -1.2743032802       -3.9632812808       -3.3880848153
 H          2.7190000460       -1.3795489077        1.5727363860
 H          0.6379124250       -1.0621777947       -2.3523896662
 H          1.7708191371        0.4319584861       -0.3264860890
 H          4.2820230753        0.3241382285       -0.0099515109
 H          4.1899153895       -1.4431171384       -0.2328400716
 H          3.2779904855       -0.7591167533       -2.5308409845
 H          3.0554104507        0.8355371152       -2.2254528745
 H         -0.2596852446       -2.9179619815        0.6677910510
 H         -3.1877634756       -2.8508046626        1.0513233809
 H         -0.8871166378       -2.6998111924        3.0680481613
 H         -1.6837572315       -4.2139103577        2.5932214225
 H         -2.5875514496       -2.9585478032        3.4566648591
 H         -3.2939141848       -0.9412365224       -0.2310523546
 H         -3.1395736419        1.6120326212        1.1857708395
 H         -4.5965670969        1.3545664246       -0.8298634252
 H         -3.1873298704        0.8654761862       -1.7893617929
 H         -3.2979795404        2.5156367246       -1.1706595777
 C          0.5005154752        2.5175183308        0.9067343494
 C          1.0842697216        3.1687259748       -0.1892981406
 C          1.2707003635        2.0986273073        1.9801133116
 C          2.4623008355        3.3994906927       -0.1611044692
 C          3.2269813056        2.9981832612        0.9154832564
 C          2.6325593465        2.3434773750        1.9857919856
 H          0.7875190807        1.5654416794        2.7836755359
 H          4.2902126514        3.1850569130        0.9216349379
 H          3.2326975496        2.0016414657        2.8133671853
 H          2.9212930463        3.9032679164       -1.0003212791
 C          0.2982130992        3.5959901403       -1.3518017976
 O         -0.9012196345        3.5696178388       -1.4596662655
 H          0.9318904365        3.9749590111       -2.1798440427
