  56
        -94.15200477
 C         -0.2220906082       -2.8849591804       -1.8686594147
 C         -0.6233534601       -3.0137392615       -3.3286215435
 C         -1.4564640812       -2.6582038352       -0.9747262655
 O         -2.5492556851       -2.3464557480       -1.4167239644
 O          1.5670777351       -2.3939101456        0.2830802505
 O          3.3587500626       -0.6597792645        1.4801792561
 N          0.7010273423       -1.7756128715       -1.7104103707
 C          1.5060591720       -1.6106913406       -0.6618603391
 C          2.3703697178       -0.3543814241       -0.7367994988
 C          3.6431558509       -0.5316965481        0.1182921770
 N          2.6270656922       -0.0093059878       -2.1262862360
 N         -1.2019038577       -2.8608341136        0.3259550307
 C         -2.1728283212       -2.5469422515        1.3647976167
 C         -1.7645408397       -3.2060532599        2.6700478546
 C         -2.1818499137       -1.0146675477        1.4798786547
 O         -1.4913002627       -0.4036958934        2.2703580550
 N         -2.9843978030       -0.4122034939        0.5748099481
 O         -0.6191606383        0.6222773644       -0.5746015876
 O         -0.8738639584        2.2320233499        0.9697968492
 C         -2.8090239421        1.0137039115        0.3520577954
 C         -1.3144042223        1.2581702958        0.1748420210
 C         -3.5528324620        1.4582453327       -0.8980166830
 H          0.2903641389       -3.7901492385       -1.5184543697
 H         -1.1881352449       -2.1351162030       -3.6300433227
 H         -1.2577182730       -3.8856528121       -3.4606055078
 H          0.2570631260       -3.1134431423       -3.9580149957
 H          2.7344263244       -1.4008061448        1.5576176458
 H          0.6358505263       -0.9984396102       -2.3532303243
 H          1.7657225202        0.4465163001       -0.2964322274
 H          4.2794661107        0.3536634740        0.0130161997
 H          4.2011389699       -1.4087177078       -0.2506490472
 H          3.2793054447       -0.6730477606       -2.5336665972
 H          3.0474513486        0.9113021251       -2.1842407894
 H         -0.2281919517       -2.9350580085        0.6168583124
 H         -3.1531456980       -2.8972024870        1.0237470204
 H         -1.6241190905       -4.2743880367        2.5280211336
 H         -2.5318344347       -3.0433105845        3.4218036122
 H         -0.8370792106       -2.7620332767        3.0240057018
 H         -3.2875161997       -0.9671570333       -0.2222898481
 H         -3.1444628058        1.5624808963        1.2385496856
 H         -3.2203577095        0.8665897064       -1.7482675779
 H         -3.3409505178        2.5046657247       -1.1000423784
 H         -4.6229137186        1.3239915557       -0.7637004257
 C          0.4819815804        2.5108903789        0.9331955119
 C          1.0516684415        3.1673927530       -0.1670828080
 C          1.2641564406        2.0987414437        2.0006551735
 C          2.4280320816        3.4087972616       -0.1501219308
 C          3.2045425276        3.0138933154        0.9203996094
 C          2.6238706713        2.3549640184        1.9956962614
 H          0.7918922058        1.5613576748        2.8078734595
 H          4.2663169048        3.2091349087        0.9179667632
 H          3.2332538829        2.0183762608        2.8187154030
 H          2.8761659649        3.9161768061       -0.9930494356
 C          0.2526884878        3.5904843616       -1.3224754813
 O         -0.9479614615        3.5663650694       -1.4154785248
 H          0.8771230828        3.9647449432       -2.1595707007
