  56
        -94.15200341
 C         -0.2280249026       -2.9567736094       -1.7797215188
 C         -0.6133710806       -3.1519534331       -3.2366239246
 C         -1.4713803963       -2.6816133791       -0.9120689073
 O         -2.5544073900       -2.3749688435       -1.3808572948
 O          1.5329876811       -2.3720150920        0.3709648117
 O          3.3437033940       -0.6162395925        1.4949718251
 N          0.7004059933       -1.8468533021       -1.6627102648
 C          1.4929117615       -1.6366373628       -0.6127696070
 C          2.3726069923       -0.3951660539       -0.7402826794
 C          3.6376956613       -0.5470004766        0.1309519175
 N          2.6436936736       -0.1205652530       -2.1428170868
 N         -1.2369673994       -2.8380693770        0.3986704833
 C         -2.2221903845       -2.4832322971        1.4104146790
 C         -1.8446803663       -3.1080493194        2.7415763462
 C         -2.2179102695       -0.9483187900        1.4813459578
 O         -1.5404100639       -0.3215611781        2.2705893492
 N         -2.9929344841       -0.3648565929        0.5406309717
 O         -0.5975680482        0.6141070718       -0.5953830958
 O         -0.8612608493        2.2644935767        0.9035956854
 C         -2.7988702577        1.0523696177        0.2811839300
 C         -1.2986975560        1.2764317304        0.1252834283
 C         -3.5142513187        1.4692078498       -0.9946151401
 H          0.2743906817       -3.8477043235       -1.3815122163
 H         -1.2475380878       -4.0284117549       -3.3354882630
 H          0.2737543936       -3.2815897091       -3.8509957921
 H         -1.1734985956       -2.2875758017       -3.5843490154
 H          2.7072722948       -1.3440847342        1.5976473332
 H          0.6555835815       -1.1048617855       -2.3474605033
 H          1.7747670740        0.4330567519       -0.3434809499
 H          4.2825125858        0.3277640167       -0.0067181046
 H          4.1905970898       -1.4432372865       -0.1975057903
 H          3.2922722362       -0.8097462931       -2.5120170753
 H          3.0740798758        0.7917853245       -2.2422663106
 H         -0.2677866724       -2.9040982629        0.7062618275
 H         -3.1998521695       -2.8335259309        1.0618597269
 H         -2.6234233249       -2.9148354271        3.4740882199
 H         -0.9187803138       -2.6639149750        3.0993112485
 H         -1.7139819712       -4.1815483154        2.6334353713
 H         -3.2869436632       -0.9400176008       -0.2453522194
 H         -3.1448359676        1.6290903194        1.1455628311
 H         -3.2897856500        2.5083269646       -1.2194313270
 H         -4.5878291544        1.3466951292       -0.8783486216
 H         -3.1697075604        0.8529759079       -1.8222751275
 C          0.4983979656        2.5271983034        0.8840325418
 C          1.0907562041        3.1647158375       -0.2154431502
 C          1.2603744063        2.1196448349        1.9675085512
 C          2.4688697453        3.3938562007       -0.1802893608
 C          3.2253407801        3.0041232229        0.9062890710
 C          2.6225005999        2.3627279491        1.9799506898
 H          0.7706693263        1.5963611501        2.7736306697
 H          4.2887700038        3.1894616087        0.9178146873
 H          3.2164835748        2.0298076304        2.8155357993
 H          2.9343683010        3.8872262461       -1.0221166269
 C          0.3132554052        3.5791691596       -1.3883069233
 O         -0.8856232174        3.5567461476       -1.5024294845
 H          0.9533113700        3.9438602459       -2.2179202494
