  56
        -94.15198880
 C         -0.2098596056       -3.0009718752       -1.7155225792
 C         -0.5968451793       -3.2445097209       -3.1647076321
 C         -1.4538212438       -2.7118551027       -0.8533936457
 O         -2.5409108244       -2.4303279819       -1.3286212738
 O          1.5526035183       -2.3370024574        0.4100452131
 O          3.3609705209       -0.5434669153        1.4702608794
 N          0.7082756140       -1.8794069865       -1.6349140755
 C          1.5024657324       -1.6310456639       -0.5946122398
 C          2.3698416445       -0.3856320187       -0.7618328855
 C          3.6432295397       -0.5028086082        0.1025853746
 N          2.6273233376       -0.1458626594       -2.1732948911
 N         -1.2151197775       -2.8262409623        0.4608635559
 C         -2.2024711768       -2.4536521953        1.4641880487
 C         -1.8138989935       -3.0341548995        2.8121412247
 C         -2.2165765795       -0.9175139728        1.4901330003
 O         -1.5468032547       -0.2605414582        2.2614593950
 N         -2.9964283138       -0.3701669046        0.5320262948
 O         -0.5986433607        0.5965813357       -0.6088278991
 O         -0.8921172929        2.2799754280        0.8473649655
 C         -2.8134782589        1.0401131676        0.2282049239
 C         -1.3127660769        1.2715775504        0.0869429294
 C         -3.5136715390        1.4067607870       -1.0711102123
 H          0.3020747438       -3.8744510049       -1.2916483329
 H         -1.1648653471       -2.3960553229       -3.5378919643
 H         -1.2239715421       -4.1287855464       -3.2346571842
 H          0.2899616018       -3.3859529256       -3.7769048682
 H          2.7305956353       -1.2734437250        1.5941596895
 H          0.6540788436       -1.1579091638       -2.3406249314
 H          1.7672246773        0.4470674501       -0.3820401366
 H          4.2770087677        0.3755985076       -0.0607994322
 H          4.2037486270       -1.4003153459       -0.2092883835
 H          3.2830303350       -0.8356598255       -2.5284572255
 H          3.0434034026        0.7694766090       -2.3014713565
 H         -0.2447411008       -2.8734847432        0.7680196937
 H         -3.1765372900       -2.8260189150        1.1286981586
 H         -2.5920230520       -2.8270192309        3.5414932697
 H         -0.8914854609       -2.5697664461        3.1528024271
 H         -1.6721692646       -4.1089836641        2.7359276453
 H         -3.2852091609       -0.9720334980       -0.2357601746
 H         -3.1775057822        1.6419874812        1.0676816880
 H         -3.2949254049        2.4397755836       -1.3277656565
 H         -4.5878063370        1.2786149671       -0.9664465875
 H         -3.1516858666        0.7659571270       -1.8722534787
 C          0.4685959055        2.5389697193        0.8524958212
 C          1.0863543839        3.1594612816       -0.2425325200
 C          1.2053597555        2.1436043824        1.9575805730
 C          2.4639672266        3.3868007652       -0.1794956975
 C          3.1951898993        3.0101988581        0.9286788442
 C          2.5675364429        2.3833406044        1.9966164766
 H          0.6955569364        1.6322194117        2.7589457458
 H          4.2585342392        3.1930371439        0.9616279274
 H          3.1427306873        2.0603963456        2.8490328033
 H          2.9494604811        3.8671613606       -1.0175514758
 C          0.3361259060        3.5551044629       -1.4392687438
 O         -0.8592784749        3.5228708961       -1.5839247846
 H          0.9949119602        3.9132691819       -2.2571016425
