  56
        -94.15195166
 C          0.2372642425       -3.1793741422       -1.3735746845
 C          0.1267567908       -3.6514792144       -2.8130431529
 C         -1.1520167352       -2.9015136103       -0.7689710940
 O         -2.1560506995       -2.7521282025       -1.4467227598
 O          1.5002980297       -2.0211663358        0.8917711491
 O          3.9390113272       -0.7567862187        1.3472209718
 N          1.0150674542       -1.9547916723       -1.3137955072
 C          1.5569720461       -1.4606181251       -0.2030895720
 C          2.3270334238       -0.1591627170       -0.3756560057
 C          3.7969386139       -0.4448919224       -0.0071138122
 N          2.2067625361        0.3386624377       -1.7341038355
 N         -1.1351368339       -2.8440201319        0.5701526084
 C         -2.3001732606       -2.4474187911        1.3473994086
 C         -2.1029900586       -2.8316056750        2.8030817964
 C         -2.4355918211       -0.9276231818        1.1777695441
 O         -1.9779518113       -0.1224348014        1.9634643553
 N         -3.0688738722       -0.5685615474        0.0384978888
 O         -0.6387115867        0.5989415761       -0.8431969902
 O         -1.3237785020        2.3058045293        0.4415672772
 C         -2.9912572161        0.8213039225       -0.3815288790
 C         -1.5189562646        1.2171327433       -0.2995949533
 C         -3.5110957295        0.9705502336       -1.8034365615
 H          0.7412813707       -3.9282040031       -0.7491563803
 H          1.1141096905       -3.7540928330       -3.2553636363
 H         -0.4574901708       -2.9375900741       -3.3885032289
 H         -0.3809177748       -4.6112988679       -2.8482156447
 H          3.2274162392       -1.3797161470        1.5772501634
 H          1.0998693924       -1.3873079962       -2.1463489505
 H          1.9365550401        0.5352677847        0.3872846126
 H          4.4012814950        0.4487878819       -0.1913145675
 H          4.1752400222       -1.2572230351       -0.6472743200
 H          2.8674166503        1.0921024327       -1.8923741693
 H          1.2750231450        0.7255917894       -1.8569486415
 H         -0.2281126567       -2.7637135709        1.0309360713
 H         -3.1763814275       -2.9422800039        0.9138567872
 H         -1.2691044513       -2.2688776383        3.2158921217
 H         -1.8988119166       -3.8954280140        2.8890104652
 H         -2.9961473077       -2.5916493914        3.3732383453
 H         -3.1526068614       -1.2740790872       -0.6917271971
 H         -3.5555260824        1.4414990039        0.3240105654
 H         -4.5367005277        0.6153427965       -1.8585735486
 H         -2.8952190464        0.3841846299       -2.4821842894
 H         -3.4835136707        2.0130396661       -2.1101258893
 C         -0.0078328266        2.5891735160        0.8119207508
 C          0.8917740517        3.1835938780       -0.0783660466
 C          0.3902731885        2.2212579812        2.0869352508
 C          2.2020327928        3.4117225730        0.3527893229
 C          2.5980396609        3.0609634622        1.6271848873
 C          1.6916460658        2.4651221314        2.4937737314
 H         -0.3232926465        1.7225807888        2.7244984529
 H          3.6142780059        3.2338709275        1.9453725929
 H          2.0043957062        2.1696576912        3.4830593705
 H          2.8891635809        3.8669194056       -0.3453034417
 C          0.5003457071        3.5456122559       -1.4459265410
 O          1.2670852412        3.8684102033       -2.3171115834
 H         -0.5895847562        3.5000437077       -1.6348744807
