  56
        -94.15195013
 C          0.1985067088       -3.1616855253       -1.4229299549
 C          0.0749431040       -3.6054539427       -2.8702791948
 C         -1.1841022270       -2.8811304787       -0.8043552868
 O         -2.1911085362       -2.7099800634       -1.4724051541
 O          1.4867640190       -2.0598494936        0.8559870879
 O          3.9316589781       -0.8211080299        1.3309607957
 N          0.9890777533       -1.9462666272       -1.3447735598
 C          1.5423092874       -1.4786353560       -0.2282023721
 C          2.3226692492       -0.1806539928       -0.3793624515
 C          3.7906809573       -0.4841122407       -0.0173996906
 N          2.2049448447        0.3417383488       -1.7287727783
 N         -1.1572980659       -2.8476425787        0.5354414619
 C         -2.3113864657       -2.4505930286        1.3285437002
 C         -2.1058036262       -2.8596629374        2.7762610383
 C         -2.4311587415       -0.9268619664        1.1836445080
 O         -1.9567844045       -0.1388839954        1.9768076680
 N         -3.0715624939       -0.5434668903        0.0564151301
 O         -0.6397459643        0.6174813005       -0.8318757826
 O         -1.2975158131        2.3105370651        0.4850038717
 C         -2.9856121412        0.8522435357       -0.3416582836
 C         -1.5091990411        1.2343649933       -0.2697656446
 C         -3.5199652316        1.0296244848       -1.7549317387
 H          0.6985886954       -3.9272523788       -0.8159157438
 H         -0.4510630841       -4.5546583404       -2.9209159438
 H          1.0588932790       -3.7187611526       -3.3175579499
 H         -0.4972710881       -2.8704429743       -3.4310240445
 H          3.2157338034       -1.4430833608        1.5502556369
 H          1.0732952245       -1.3637564664       -2.1668884379
 H          1.9383283779        0.5036427491        0.3958084073
 H          4.4017131251        0.4080475196       -0.1863460268
 H          4.1620506464       -1.2878329664       -0.6722827092
 H          2.8732172092        1.0907878323       -1.8753403184
 H          1.2771026798        0.7404368820       -1.8431558716
 H         -0.2460912495       -2.7854751309        0.9908290759
 H         -3.1967890696       -2.9288411554        0.8950586985
 H         -1.2653432929       -2.3087650577        3.1917195453
 H         -1.9074197498       -3.9259542439        2.8431534666
 H         -2.9931514172       -2.6238423876        3.3570998935
 H         -3.1697519207       -1.2361638184       -0.6841419196
 H         -3.5364778530        1.4657516227        0.3801501294
 H         -4.5494809940        0.6849800389       -1.8040175476
 H         -2.9174351623        0.4486930588       -2.4501040756
 H         -3.4859689151        2.0766866681       -2.0449432983
 C          0.0247838674        2.5809834399        0.8419368899
 C          0.9150944743        3.1847674143       -0.0513222671
 C          0.4383707457        2.1914828357        2.1055678108
 C          2.2319647586        3.4008447125        0.3655544014
 C          2.6434645245        3.0288635634        1.6289565817
 C          1.7462745845        2.4233242572        2.4983908137
 H         -0.2687684983        1.6860999870        2.7450083267
 H          3.6644927583        3.1931061254        1.9363001222
 H          2.0712533298        2.1108052649        3.4783964924
 H          2.9115367778        3.8639861980       -0.3346919141
 C          0.5069250860        3.5690644301       -1.4079751466
 O          1.2634832724        3.9008482813       -2.2846240872
 H         -0.5857662185        3.5327537344       -1.5823858077
