  56
        -94.15194816
 C          2.2368049937       -1.6849466806       -0.1867074218
 C          3.5343325901       -2.4752845285       -0.3608922133
 C          1.0561548700       -2.5353201107       -0.6638285716
 O          0.8064004370       -2.6489446743       -1.8531717079
 O          1.9898519838        0.9909447799        0.6927419219
 O          2.5125763386        3.5902700898        0.0489067593
 N          2.2576642318       -0.4847084758       -0.9900855894
 C          2.0686865772        0.7424428688       -0.5061925421
 C          2.0613058303        1.8265004974       -1.5865240281
 C          1.6526617950        3.1853876861       -0.9827155477
 N          3.3827022517        1.8254864401       -2.2031250482
 N          0.3715226465       -3.1673078320        0.3015555641
 C         -0.8450417586       -3.9145357527        0.0172170870
 C         -1.0470061502       -5.0049576620        1.0558889848
 C         -2.0176255217       -2.9135304213        0.0203744286
 O         -2.8883529451       -2.9080975479        0.8599280768
 N         -1.9526126572       -2.0490128355       -1.0161339023
 O         -0.7023531590        0.5453027954       -1.1300834698
 O         -2.3022602703        1.0507768176        0.3708263313
 C         -2.7025290312       -0.8146736999       -1.0168267397
 C         -1.7588258442        0.3159132155       -0.6044994577
 C         -3.2685582165       -0.5208760375       -2.4040716230
 H          2.1042019482       -1.3777772963        0.8533156732
 H          3.6376559867       -2.7859155049       -1.3978947985
 H          3.5215726882       -3.3594409581        0.2711308075
 H          4.3858679090       -1.8561678896       -0.0908939819
 H          2.4930928945        2.8693245385        0.7007587469
 H          2.2480487954       -0.6250592976       -1.9900313075
 H          1.3214237717        1.5438783256       -2.3417690379
 H          0.6160852934        3.1130048125       -0.6264318321
 H          1.7045110261        3.9615949070       -1.7527117491
 H          3.3930769048        2.4653545068       -2.9913089807
 H          4.0570638889        2.1778125445       -1.5284351847
 H          0.4614372912       -2.8398743736        1.2524717292
 H         -0.7325416334       -4.3366117248       -0.9872694592
 H         -1.9178781206       -5.5994639616        0.7960764369
 H         -1.2248237750       -4.5554514344        2.0297241112
 H         -0.1740493591       -5.6506031614        1.1057897709
 H         -1.1455736298       -2.0805153792       -1.6291160935
 H         -3.4959408398       -0.9116514632       -0.2700718509
 H         -3.8633397866        0.3885357142       -2.3845415221
 H         -3.8962301976       -1.3476270454       -2.7252071488
 H         -2.4539728759       -0.3962093059       -3.1141927697
 C         -1.5487413121        2.0433589259        0.9816239315
 C         -0.4516255450        1.7291556306        1.7932188690
 C         -1.9557413689        3.3594477468        0.8217884320
 C          0.2205979675        2.7750755938        2.4283055236
 C         -0.1717301139        4.0863873809        2.2546226036
 C         -1.2654224885        4.3786580083        1.4535577494
 H         -2.8094476024        3.5683263069        0.1954477328
 H          0.3727596299        4.8822257937        2.7380070096
 H         -1.5789449966        5.4019308106        1.3142885778
 H          1.0729978741        2.5378848810        3.0465122803
 C          0.0182366584        0.3540964114        2.0077816168
 O         -0.3881729142       -0.6451464184        1.4609095866
 H          0.7868985578        0.2882486203        2.7988814683
