  56
        -94.15194751
 C          2.2411008464       -1.6776112157       -0.1905815332
 C          3.5401377319       -2.4642316675       -0.3704487326
 C          1.0618135113       -2.5300581339       -0.6672363843
 O          0.8105523201       -2.6429704118       -1.8563271983
 O          1.9897458172        0.9941265738        0.6988959782
 O          2.5139225359        3.5944734758        0.0643600008
 N          2.2571389875       -0.4746933102       -0.9899427818
 C          2.0669978604        0.7502958479       -0.5010401891
 C          2.0557356502        1.8381428026       -1.5776091307
 C          1.6516943731        3.1956650939       -0.9676292195
 N          3.3738420439        1.8374162386       -2.2012411114
 N          0.3805330157       -3.1652177434        0.2984599266
 C         -0.8336077245       -3.9168582597        0.0152968572
 C         -1.0308820283       -5.0071778304        1.0549689327
 C         -2.0093576761       -2.9195676595        0.0184280767
 O         -2.8786973278       -2.9150020752        0.8593723258
 N         -1.9485887446       -2.0571703494       -1.0202386844
 O         -0.7017835851        0.5390337744       -1.1277601180
 O         -2.3069268138        1.0419401160        0.3682840770
 C         -2.7002736480       -0.8239131937       -1.0211474246
 C         -1.7595250288        0.3078964281       -0.6054322029
 C         -3.2623671396       -0.5289511887       -2.4097352916
 H          2.1101838653       -1.3739755077        0.8507285766
 H          4.3908193127       -1.8441322959       -0.1000483271
 H          3.6417958302       -2.7707495402       -1.4088414030
 H          3.5308502064       -3.3508003842        0.2582634720
 H          2.4944836368        2.8704660718        0.7128816562
 H          2.2463275396       -0.6109149434       -1.9904229183
 H          1.3116191775        1.5587598683       -2.3299361068
 H          0.6153849962        3.1246832438       -0.6101868544
 H          1.7043915773        3.9747972412       -1.7346451676
 H          4.0526269617        2.1858633361       -1.5289772971
 H          3.3810146683        2.4802188077       -2.9870691975
 H          0.4706259879       -2.8384664861        1.2495994113
 H         -0.7203066162       -4.3392622475       -0.9889586502
 H         -1.2106465878       -4.5575031648        2.0283685767
 H         -0.1550871193       -5.6489440542        1.1054952546
 H         -1.8990986194       -5.6058003541        0.7957373278
 H         -1.1415070758       -2.0872378373       -1.6333780806
 H         -3.4955962604       -0.9227960925       -0.2766819976
 H         -3.8580226768        0.3799121864       -2.3908986927
 H         -3.8881995825       -1.3558821906       -2.7339562907
 H         -2.4456048435       -0.4025981173       -3.1170998085
 C         -1.5567162748        2.0368451034        0.9793777019
 C         -0.4602050928        1.7262882263        1.7932157075
 C         -1.9661610565        3.3518117715        0.8166370864
 C          0.2089257490        2.7747465655        2.4274462025
 C         -0.1855475658        4.0849938831        2.2505230661
 C         -1.2787013991        4.3735975612        1.4473784914
 H         -2.8193185687        3.5578205995        0.1886005289
 H          0.3570022929        4.8828615874        2.7327415610
 H         -1.5939457737        5.3959833967        1.3055201067
 H          1.0609226519        2.5404287160        3.0472948815
 C          0.0125578324        0.3526648825        2.0106708145
 O         -0.3893577425       -0.6481795496        1.4636163725
 H          0.7795990592        0.2898419129        2.8035977575
