  56
        -94.15194658
 C          2.2387152187       -1.6776161270       -0.1833676870
 C          3.5386539243       -2.4651607358       -0.3523173136
 C          1.0615640602       -2.5319658837       -0.6619364610
 O          0.8125228726       -2.6454263811       -1.8513586795
 O          1.9868365533        0.9996726612        0.6907043280
 O          2.5143334382        3.5965563166        0.0399254178
 N          2.2584067953       -0.4789559042       -0.9889564780
 C          2.0661642248        0.7486479582       -0.5076701544
 C          2.0554708819        1.8300705254       -1.5906638076
 C          1.6512402929        3.1911281358       -0.9887913969
 N          3.3737415388        1.8258761189       -2.2139026405
 N          0.3792659209       -3.1677800143        0.3026676476
 C         -0.8334853731       -3.9205126731        0.0167043016
 C         -1.0287771557       -5.0159986296        1.0513247973
 C         -2.0106057874       -2.9250509922        0.0247479398
 O         -2.8802630959       -2.9264087579        0.8654418942
 N         -1.9510372600       -2.0567392921       -1.0089747551
 O         -0.7074622592        0.5376339496       -1.1278047309
 O         -2.3058308433        1.0487201778        0.3729675286
 C         -2.7051897336       -0.8250805756       -1.0032438636
 C         -1.7624431222        0.3090693015       -0.5989287870
 C         -3.2844415843       -0.5324169194       -2.3853996852
 H          2.1024121117       -1.3689148062        0.8557147744
 H          4.3878182374       -1.8436088563       -0.0804683324
 H          3.6460676150       -2.7769742774       -1.3885354100
 H          3.5260084972       -3.3484517619        0.2809245841
 H          2.4945091369        2.8774435318        0.6937486376
 H          2.2494582609       -0.6210635894       -1.9886865355
 H          1.3114591607        1.5461158992       -2.3413965326
 H          0.6153560446        3.1217070803       -0.6298559762
 H          1.7028429582        3.9656003657       -1.7605751385
 H          3.3807358988        2.4625814104       -3.0046745634
 H          4.0518604507        2.1801004741       -1.5439898289
 H          0.4678395413       -2.8415136278        1.2540882248
 H         -0.7195024175       -4.3381661303       -0.9894670314
 H         -1.2074669184       -4.5713538186        2.0272217509
 H         -0.1525664560       -5.6575116339        1.0974465202
 H         -1.8970200345       -5.6137798519        0.7902393773
 H         -1.1447523333       -2.0824361605       -1.6231638867
 H         -3.4921563146       -0.9250558374       -0.2500825897
 H         -3.9133347594       -1.3604910508       -2.7006948816
 H         -2.4767190887       -0.4060991459       -3.1030173888
 H         -3.8809479037        0.3757358972       -2.3602875051
 C         -1.5524371969        2.0444101537        0.9786330173
 C         -0.4540206276        1.7341658080        1.7899818618
 C         -1.9609506634        3.3595019237        0.8144935275
 C          0.2178747951        2.7830369986        2.4205563907
 C         -0.1759107589        4.0933272755        2.2425397424
 C         -1.2708147586        4.3816673874        1.4416638017
 H         -2.8155998756        3.5652371408        0.1884009589
 H          0.3682264640        4.8914291006        2.7225853191
 H         -1.5854783415        5.4041419968        1.2990750113
 H          1.0711714458        2.5489110936        3.0386741197
 C          0.0177659713        0.3603453490        2.0085001573
 O         -0.3873458215       -0.6411709274        1.4647663967
 H          0.7875644397        0.2980513511        2.7987638422
