  56
        -94.15512065
 C         -2.2455809489        0.6230312967       -1.8068463330
 C         -1.3520508383        0.5941216708       -3.0444966348
 C         -1.8113139856        1.7763819288       -0.8970364385
 O         -1.4367842409        2.8456752728       -1.3642874631
 O         -4.4444968808       -0.9973447042       -1.1564429418
 O         -2.1619220108       -1.0461971356        1.7659928693
 N         -2.2136740143       -0.6445656135       -1.1182651825
 C         -3.3284136387       -1.3423044852       -0.8250118134
 C         -3.0883701230       -2.5631878624        0.0602336938
 C         -3.1271773392       -2.0344754791        1.5173738952
 N         -4.0957684328       -3.5626039402       -0.2220096434
 N         -1.8803987240        1.5409561660        0.4184910034
 C         -1.3622104339        2.4785279579        1.4051947860
 C         -1.9008500417        2.1373766306        2.7817829710
 C          0.1605961227        2.3272293743        1.3191242924
 O          0.8146313003        1.5915267761        2.0356312273
 N          0.7100751139        3.0261112535        0.3009458958
 O          1.1990967975        0.4690027907       -0.7024327817
 O          3.2592538573        0.6481698565        0.1879406416
 C          2.0451834196        2.6555932237       -0.1205426937
 C          2.0920425165        1.1352324338       -0.2406235858
 C          2.3687739324        3.2903415707       -1.4673778167
 H         -3.2905812262        0.7947774847       -2.0957097152
 H         -1.3628553518        1.5704030226       -3.5202769901
 H         -1.7047126187       -0.1555294905       -3.7472781888
 H         -0.3319484075        0.3583237945       -2.7473816095
 H         -1.2858870595       -1.4130239031        1.5346683747
 H         -1.3054865288       -0.9929895804       -0.8470770552
 H         -2.0950026792       -2.9896896352       -0.1305196511
 H         -2.9969137699       -2.8820524994        2.2069291330
 H         -4.1001966968       -1.5720428204        1.7111771031
 H         -4.9557376077       -3.0882213101       -0.4866879850
 H         -4.2819386341       -4.1374526693        0.5921783019
 H         -2.1199002671        0.6164235963        0.7738661498
 H         -1.6447248554        3.4926894215        1.1002039144
 H         -1.6048346427        1.1262394300        3.0488567696
 H         -2.9853961619        2.2021227946        2.7859187166
 H         -1.4978599260        2.8270694899        3.5182435528
 H          0.0677234471        3.3581634151       -0.4216822407
 H          2.7706472345        2.9558627107        0.6446264995
 H          2.3168736925        4.3722718859       -1.3807562873
 H          1.6461885097        2.9613865650       -2.2112380006
 H          3.3679601953        3.0092035440       -1.7900075558
 C          3.5269701306       -0.7078666116        0.0667491199
 C          2.5749579921       -1.6888155569        0.3578382319
 C          4.7845061835       -1.0648347533       -0.3959601794
 C          2.8998684640       -3.0262911111        0.1355413567
 C          4.1559700025       -3.3823251388       -0.3144494994
 C          5.1023073954       -2.4009947929       -0.5666913574
 H          5.4996698520       -0.2875932238       -0.6148658433
 H          4.3989770767       -4.4220157176       -0.4694980339
 H          6.0876529311       -2.6735515417       -0.9121070668
 H          2.1496536827       -3.7742441462        0.3433614275
 C          1.2605055249       -1.3411355984        0.9193465359
 O          0.2462569403       -1.9714341832        0.7088457285
 H          1.2616735394       -0.4923819823        1.6221614020
