  56
        -94.15190635
 C         -0.2729898487       -3.0223387453       -1.7580696185
 C         -0.5683395328       -3.2562234744       -3.2303459176
 C         -1.5588739097       -2.6704056607       -0.9858922941
 O         -2.5983176148       -2.3488489875       -1.5383933119
 O          1.3636240630       -2.4299839295        0.4848283330
 O          3.3371761346       -0.8832623872        1.5838190439
 N          0.6897319859       -1.9459399744       -1.6156343095
 C          1.4154260303       -1.7246136352       -0.5213366068
 C          2.3380729982       -0.5119629294       -0.6212866731
 C          3.6115584843       -0.7424269299        0.2214017693
 N          2.5960609865       -0.1931665084       -2.0163589316
 N         -1.4167282797       -2.7785527123        0.3423359814
 C         -2.4578957234       -2.3716419322        1.2758667747
 C         -2.1671046626       -2.9409998798        2.6528780387
 C         -2.4442981259       -0.8371748118        1.2797757137
 O         -1.8218059144       -0.1757123243        2.0871169122
 N         -3.1378071620       -0.2885593974        0.2574535440
 O         -0.6145239478        0.5110084560       -0.5920097262
 O         -0.9765875135        2.3796722679        0.5960690306
 C         -2.8838041245        1.1086245535       -0.0518414880
 C         -1.3654636190        1.2810602231       -0.0520061015
 C         -3.4645663193        1.4631997042       -1.4128699936
 H          0.1646835497       -3.9173664946       -1.2973895137
 H         -1.0621726152       -2.3823186877       -3.6477280502
 H         -1.2344769979       -4.1070237306       -3.3419323474
 H          0.3513341906       -3.4486359025       -3.7764348463
 H          2.6534809607       -1.5728626446        1.6524094098
 H          0.7292538707       -1.2257515490       -2.3249774052
 H          1.7772902793        0.3190964393       -0.1797300565
 H          4.2760937092        0.1224797149        0.1212588477
 H          4.1368255188       -1.6320352179       -0.1667398536
 H          2.9754949570        0.7425988510       -2.1011937144
 H          3.2773783066       -0.8404492836       -2.4017254853
 H         -0.4719469776       -2.8651531387        0.7153336402
 H         -3.4171498241       -2.7287141395        0.8848466937
 H         -2.9800351945       -2.6994895749        3.3319970074
 H         -1.2520972205       -2.5000372464        3.0412004193
 H         -2.0541817469       -4.0205562594        2.6002237488
 H         -3.3707620666       -0.8992721753       -0.5239035311
 H         -3.3040873021        1.7386395947        0.7400380790
 H         -3.0014859133        0.8477401012       -2.1813194915
 H         -3.2836870307        2.5106570056       -1.6397397100
 H         -4.5365397724        1.2834562298       -1.4133334065
 C          0.3858233914        2.4767727720        0.8892662610
 C          1.2359162458        3.2633983094        0.1057649396
 C          0.8726275334        1.7617890548        1.9718043329
 C          2.5873458851        3.3323778384        0.4566216547
 C          3.0711609581        2.6373734849        1.5458881870
 C          2.2153629555        1.8479300440        2.3018171516
 H          0.1899808241        1.1363081079        2.5273927546
 H          4.1167686253        2.6967463555        1.8060362964
 H          2.5976846593        1.2809382827        3.1349235778
 H          3.2336036445        3.9442935556       -0.1555320285
 C          0.7448065519        3.9858236322       -1.0725123093
 O          1.4391180732        4.5907927907       -1.8495046955
 H         -0.3518939119        3.9312156161       -1.2093272474
