  56
        -94.15180736
 C         -0.4782177404       -2.6725358858       -2.0947494244
 C         -0.9349638100       -2.6218532923       -3.5431665380
 C         -1.6617627473       -2.5156588040       -1.1266012684
 O         -2.7546805509       -2.1002320569       -1.4730853188
 O          1.4800904849       -2.6173644611       -0.1051640078
 O          3.9376221727       -1.6141181468        0.6270311040
 N          0.4604386385       -1.5918873213       -1.8323270037
 C          1.3473725324       -1.6306976707       -0.8261705370
 C          2.2442405152       -0.4035398595       -0.6592565029
 C          3.7070426505       -0.8851151313       -0.5402848265
 N          2.1493223890        0.6169630434       -1.6800113631
 N         -1.3536749690       -2.8538228119        0.1349396742
 C         -2.2321508959       -2.5361394156        1.2522934817
 C         -1.7877059969       -3.2890670371        2.4928441648
 C         -2.1203939230       -1.0144121080        1.4404795006
 O         -1.3061936429       -0.4968551342        2.1793281864
 N         -2.9629325408       -0.3066376429        0.6585986405
 O         -0.6271247054        0.7979848744       -0.5623639714
 O         -0.7454978010        2.1846453302        1.2017906038
 C         -2.7486142335        1.1264650005        0.5284372689
 C         -1.2551401029        1.3462853198        0.3107197086
 C         -3.5269778570        1.6801771525       -0.6552901412
 H          0.0438114077       -3.6105555661       -1.8744176304
 H         -1.5151969253       -1.7181309109       -3.7146459289
 H         -1.5700579325       -3.4766508459       -3.7570990636
 H         -0.0790883300       -2.6372572073       -4.2130552869
 H          3.2367829237       -2.2871765765        0.6815220945
 H          0.2104698601       -0.6890314580       -2.2115194344
 H          1.9704987716        0.0521422946        0.2998512904
 H          4.3579538895       -0.0082039357       -0.5101057113
 H          3.9615360884       -1.4791586096       -1.4336097723
 H          1.2298251671        1.0446721722       -1.6580674117
 H          2.3135881722        0.2229423878       -2.6002823242
 H         -0.3801463636       -3.0451928037        0.3595760492
 H         -3.2549526189       -2.7999456147        0.9625756567
 H         -2.4900264017       -3.1136870193        3.3030114487
 H         -0.8086893024       -2.9304110894        2.8023533351
 H         -1.7353538886       -4.3555319843        2.2902776354
 H         -3.3883948641       -0.7857284530       -0.1308835739
 H         -3.0322639308        1.6208312047        1.4640947822
 H         -3.2883976954        2.7314193373       -0.7930662335
 H         -4.5947052147        1.5705834817       -0.4851406959
 H         -3.2506253246        1.1402377783       -1.5584050672
 C          0.6237830291        2.4058772578        1.1776741814
 C          1.2221593935        3.1511852652        0.1533339009
 C          1.3845686306        1.8489580854        2.1932567926
 C          2.6090159853        3.3171415913        0.1819912460
 C          3.3675075487        2.7698388058        1.1959761144
 C          2.7561350256        2.0368737873        2.2034796083
 H          0.8844180147        1.2559768199        2.9434132136
 H          4.4382158380        2.9020008911        1.2009689499
 H          3.3498935013        1.5924091472        2.9869959478
 H          3.0809286511        3.8796399808       -0.6094447324
 C          0.4421629987        3.7396339223       -0.9403305673
 O         -0.7591486750        3.7471623841       -1.0456006367
 H          1.0803648793        4.2065509443       -1.7168098805
