  56
        -94.15180318
 C         -0.6185075022       -2.5843104156       -2.1679923196
 C         -1.0918982907       -2.4438369805       -3.6050291838
 C         -1.7795194255       -2.4177624230       -1.1746313694
 O         -2.8587941860       -1.9426052087       -1.4847699939
 O          1.3706827325       -2.7173227728       -0.2132511134
 O          3.8662332762       -1.8481265086        0.5590650410
 N          0.3727130531       -1.5612874747       -1.8692786606
 C          1.2714864010       -1.6900973988       -0.8811879418
 C          2.2215956195       -0.5115898579       -0.6649623096
 C          3.6629191501       -1.0595203113       -0.5740914697
 N          2.1678324269        0.5560296159       -1.6395977518
 N         -1.4657561112       -2.8185955247        0.0672921230
 C         -2.3046003216       -2.4957202362        1.2131994078
 C         -1.8681420388       -3.3042906583        2.4211019446
 C         -2.1186057132       -0.9867242392        1.4412947034
 O         -1.2579796178       -0.5275006503        2.1662047664
 N         -2.9535415150       -0.2190165969        0.7098261287
 O         -0.6041513077        0.8430134358       -0.5335246439
 O         -0.6314856850        2.1765414831        1.2745505096
 C         -2.6856336844        1.2080646326        0.6228801531
 C         -1.1912871816        1.3821922419        0.3730733746
 C         -3.4716115147        1.8327711391       -0.5199546040
 H         -0.1380645113       -3.5548008494       -1.9999325718
 H         -1.7763895621       -3.2521598573       -3.8456263981
 H         -0.2477165488       -2.4759664384       -4.2889975688
 H         -1.6234234882       -1.5029074838       -3.7271229285
 H          3.1403750866       -2.4958266385        0.5847228784
 H          0.1568415581       -0.6299908114       -2.1975784335
 H          1.9699462085       -0.0869760316        0.3145183337
 H          4.3505678884       -0.2130584581       -0.5090005881
 H          3.8890593476       -1.6240444528       -1.4937503173
 H          1.2686967452        1.0232513434       -1.5934879584
 H          2.3099063817        0.1955074046       -2.5771039104
 H         -0.4989764169       -3.0656919738        0.2649857589
 H         -3.3445726528       -2.7042652743        0.9400772943
 H         -2.5442799805       -3.1221849702        3.2518252889
 H         -0.8674109294       -2.9991438198        2.7183313648
 H         -1.8684759948       -4.3655055678        2.1866335611
 H         -3.4224088694       -0.6524804067       -0.0812246659
 H         -2.9262095575        1.6798300143        1.5820739024
 H         -3.1942124924        2.8778175653       -0.6290825355
 H         -4.5380683248        1.7597745055       -0.3241197730
 H         -3.2410067057        1.3137058476       -1.4478071781
 C          0.7411692206        2.3668556872        1.2127605116
 C          1.3220310938        3.1403098703        0.1990763434
 C          1.5224907369        1.7546328254        2.1795492453
 C          2.7121437718        3.2784731933        0.1891748691
 C          3.4911993104        2.6761895576        1.1551906440
 C          2.8973764774        1.9148967246        2.1519540466
 H          1.0346869307        1.1430968984        2.9230114509
 H          4.5639371798        2.7882978224        1.1305639987
 H          3.5063217823        1.4276047553        2.8974727313
 H          3.1701828216        3.8641079582       -0.5937052132
 C          0.5199757755        3.7874167709       -0.8443074716
 O         -0.6836250695        3.8201212426       -0.9115653141
 H          1.1425612710        4.2756245277       -1.6205092880
