  56
        -94.15175285
 C          2.3594926151       -1.5767019758       -0.2059875772
 C          3.6650012639       -2.2922983549       -0.5508248209
 C          1.1713506618       -2.4709782322       -0.5753581000
 O          0.8799311945       -2.6578549121       -1.7488538498
 O          2.1195098893        1.1069132795        0.7335392052
 O          1.9914524657        3.7487309111        0.1105718092
 N          2.2175667816       -0.3644718870       -0.9809243849
 C          2.0302002381        0.8492505423       -0.4640547165
 C          1.6877510643        1.9195253831       -1.5021819182
 C          2.3822320863        3.2506072506       -1.1350622396
 N          2.0070587315        1.4440841345       -2.8391000442
 N          0.5128164189       -3.0216357812        0.4509112253
 C         -0.7061241519       -3.7928876001        0.2638238436
 C         -0.8964272149       -4.7519309153        1.4269776197
 C         -1.9000885121       -2.8213444094        0.1515513946
 O         -2.8115401009       -2.7836868761        0.9449931553
 N         -1.8059456137       -2.0259701092       -0.9345050380
 O         -1.5040207219        1.1376103644       -1.6740707955
 O         -1.8268258262        0.5427958289        0.4701205573
 C         -2.7016984714       -0.9135995765       -1.1630087420
 C         -1.9508870142        0.3838748408       -0.8499781714
 C         -3.2098886785       -0.9069073318       -2.5982871149
 H          2.3330115741       -1.2968530767        0.8500589403
 H          3.6568668588       -2.5798624103       -1.5996468131
 H          3.7713589909       -3.1862484191        0.0579511185
 H          4.5113334719       -1.6353873662       -0.3672138539
 H          2.0671077990        3.0048550409        0.7352762355
 H          2.0503077865       -0.4651359006       -1.9772831656
 H          0.6009610240        2.0620513271       -1.4404785029
 H          2.1249217094        4.0149034414       -1.8761693560
 H          3.4750486646        3.0919127861       -1.1661568467
 H          2.9994580918        1.5569358371       -3.0232888887
 H          1.4978095952        1.9755510779       -3.5345253794
 H          0.6281693184       -2.6195383821        1.3720087188
 H         -0.6034753337       -4.3334214023       -0.6843531989
 H         -1.0387811155       -4.1875293728        2.3451034561
 H         -0.0323589683       -5.4032241576        1.5296151814
 H         -1.7837378393       -5.3557962857        1.2616950231
 H         -1.0170478168       -2.1302681923       -1.5627819938
 H         -3.5174564986       -1.0255717202       -0.4389088506
 H         -2.3780582513       -0.7593517950       -3.2827856339
 H         -3.9214594665       -0.0985338016       -2.7412972145
 H         -3.6956034620       -1.8524857365       -2.8217735456
 C         -1.3039559261        1.7122908695        0.9937124893
 C         -0.3164563769        1.6411229255        1.9867491913
 C         -1.8054596935        2.9420736698        0.5923529185
 C          0.1244431618        2.8301520683        2.5708217582
 C         -0.3770161272        4.0517110637        2.1722226146
 C         -1.3376551522        4.1061285369        1.1751688688
 H         -2.5604158177        2.9801360421       -0.1780220196
 H         -0.0140040676        4.9605247965        2.6247893147
 H         -1.7284017045        5.0573964366        0.8487089890
 H          0.8863290104        2.7780262101        3.3340266350
 C          0.3147927928        0.3821689489        2.3885899609
 O          0.0733852637       -0.7204169470        1.9591960873
 H          1.0776239083        0.5220190635        3.1769157025
