  56
        -94.15511868
 C         -2.2488868468        0.6219332670       -1.8039983454
 C         -1.3553651508        0.5998311370       -3.0418681665
 C         -1.8196823841        1.7757097598       -0.8924608823
 O         -1.4517887184        2.8479281745       -1.3583627826
 O         -4.4388386467       -1.0135271728       -1.1633950918
 O         -2.1618363096       -1.0537102235        1.7656311377
 N         -2.2105209560       -0.6466251341       -1.1175968611
 C         -3.3216322360       -1.3520742130       -0.8290989139
 C         -3.0767858221       -2.5725186064        0.0553058658
 C         -3.1227278908       -2.0451777175        1.5127739547
 N         -4.0774209759       -3.5775298706       -0.2309784002
 N         -1.8839565521        1.5372184469        0.4227726606
 C         -1.3659492636        2.4748620550        1.4095788943
 C         -1.8986599047        2.1295433948        2.7874301270
 C          0.1570294643        2.3286158143        1.3182693302
 O          0.8159389646        1.5951623580        2.0327080870
 N          0.7010566980        3.0282540634        0.2978381751
 O          1.1935137658        0.4690065629       -0.7002684279
 O          3.2557396523        0.6571827400        0.1834732663
 C          2.0352107060        2.6600399298       -0.1287305422
 C          2.0858436075        1.1392877610       -0.2430009432
 C          2.3501589925        3.2899434716       -1.4798943772
 H         -3.2947294132        0.7889077195       -2.0925483170
 H         -0.3344138518        0.3668240655       -2.7454249461
 H         -1.3698514695        1.5774326241       -3.5148673973
 H         -1.7052870341       -0.1491318649       -3.7467236479
 H         -1.2837035683       -1.4175169790        1.5373538277
 H         -1.3006501601       -0.9900578181       -0.8457032192
 H         -2.0803457956       -2.9929205381       -0.1328975735
 H         -2.9919492286       -2.8928873530        2.2020674522
 H         -4.0981005165       -1.5864376876        1.7034715104
 H         -4.9393027491       -3.1079554627       -0.4979890679
 H         -4.2627816735       -4.1543135077        0.5820095582
 H         -2.1199522303        0.6113153185        0.7770131422
 H         -1.6528727787        3.4885838401        1.1072620376
 H         -1.4940739184        2.8184090061        3.5238006749
 H         -1.5995900330        1.1184394077        3.0512090586
 H         -2.9832998914        2.1920769878        2.7960649256
 H          0.0555816554        3.3607687661       -0.4217154286
 H          2.7637300840        2.9655461003        0.6314513488
 H          3.3488206641        3.0109039449       -1.8059591873
 H          2.2947802264        4.3720672764       -1.3979473297
 H          1.6253043633        2.9550661612       -2.2188883835
 C          3.5276318308       -0.6983672318        0.0660688528
 C          2.5797822525       -1.6817600022        0.3623467252
 C          4.7854879480       -1.0523807901       -0.3980992309
 C          2.9092114224       -3.0187960205        0.1441529937
 C          4.1657092926       -3.3718361137       -0.3070854164
 C          5.1078561228       -2.3879301645       -0.5648771269
 H          5.4973767144       -0.2733002931       -0.6211077843
 H          4.4122454704       -4.4111881297       -0.4587695651
 H          6.0935062511       -2.6580616374       -0.9113191647
 H          2.1621814591       -3.7687671236        0.3561430790
 C          1.2649256752       -1.3372858545        0.9250693746
 O          0.2526698761       -1.9717136557        0.7174861051
 H          1.2642203795       -0.4868951912        1.6258500907
