  56
        -94.15171937
 C         -2.1109185117        0.3470989845       -1.7756375333
 C         -1.9992508567       -0.7269643082       -2.8448091556
 C         -0.7719519484        1.0793169953       -1.5700195184
 O          0.2776486519        0.7015605464       -2.0558913948
 O         -3.4753511463        1.6453302683        0.2917434059
 O         -1.2762273218       -0.8699026027        2.1036951430
 N         -2.5397286247       -0.2396254095       -0.5163106405
 C         -3.2166768344        0.4573167476        0.4132446171
 C         -3.6234429960       -0.3407649532        1.6422809012
 C         -2.4383634490       -0.2972139850        2.6464751863
 N         -4.8528082396        0.2088331061        2.1743530159
 N         -0.9025402937        2.1755453783       -0.8040849982
 C          0.2544714219        2.8494342300       -0.2484528507
 C         -0.1417985224        4.2260700902        0.2669214079
 C          0.7769305661        1.9779109932        0.9025505996
 O          0.0238826496        1.5686676807        1.7721926774
 N          2.0945241474        1.7273839896        0.8864788940
 O          3.3946704975       -1.5039032470        1.0582384966
 O          1.3160147441       -0.7824507405        0.5679263674
 C          2.6857261835        0.7218545560        1.7468710925
 C          2.5589371116       -0.6479613980        1.0724953075
 C          4.1417856004        1.0422470681        2.0407879602
 H         -2.8691339277        1.0917530873       -2.0471405446
 H         -1.7520209069       -0.2674760680       -3.7974148940
 H         -2.9390734552       -1.2643893579       -2.9408189163
 H         -1.2055782653       -1.4248810499       -2.5893471487
 H         -0.6542132710       -0.1516544126        1.9008394616
 H         -2.1757560272       -1.1510583419       -0.2807132873
 H         -3.7947445548       -1.3881926364        1.3623785660
 H         -2.7222648268       -0.8796270280        3.5331039634
 H         -2.2631576533        0.7400738943        2.9476722083
 H         -4.8471047358        1.2161147316        2.0373712763
 H         -4.9356881797        0.0190592921        3.1667873411
 H         -1.7989034709        2.3387123788       -0.3489850800
 H          1.0103266534        2.9199723210       -1.0374671591
 H         -0.5827244837        4.8133045818       -0.5344105349
 H          0.7303728892        4.7479405487        0.6519690247
 H         -0.8689779675        4.1180734694        1.0686275566
 H          2.6122399003        1.8929882644        0.0336355966
 H          2.0862664987        0.6928038877        2.6658282877
 H          4.7012248411        1.0807345725        1.1094930841
 H          4.5679406615        0.2609893698        2.6628468067
 H          4.2236799319        1.9972382416        2.5522346245
 C          1.0797977742       -1.7614202444       -0.3704868854
 C          1.7529215035       -1.7407190573       -1.5997943273
 C          0.1044033945       -2.7101433648       -0.1050145231
 C          1.4366666805       -2.7223930241       -2.5404664958
 C          0.4879220673       -3.6876147461       -2.2682383290
 C         -0.1865060572       -3.6739801009       -1.0547738558
 H         -0.4065437766       -2.6677869434        0.8452327033
 H          0.2601534374       -4.4441975204       -3.0035052340
 H         -0.9403108124       -4.4186825201       -0.8473956868
 H          1.9461903824       -2.7141710455       -3.4927681129
 C          2.7038465055       -0.6833024305       -1.9528377294
 O          3.1497730107        0.1680851664       -1.2223236313
 H          3.0060535607       -0.7180743523       -3.0157311288
