  56
        -94.15171465
 C         -1.5680849890       -2.6889711058       -1.7998770623
 C         -1.9711404161       -2.6977849146       -3.2643111153
 C         -2.5644394303       -1.8786952460       -0.9496557375
 O         -3.3905603275       -1.1209159973       -1.4320248001
 O          0.2250443343       -2.9616099469        0.3791470487
 O          2.9783760423       -3.3950061761        0.5187800954
 N         -0.2503733535       -2.0966218796       -1.6522585307
 C          0.5268649277       -2.2552039139       -0.5832918690
 C          1.8784463153       -1.5606827127       -0.6452229292
 C          2.9497587193       -2.6710892486       -0.6752563182
 N          1.9709430558       -0.7018152850       -1.8125523688
 N         -2.4216456574       -2.0972467988        0.3651440942
 C         -3.1188160309       -1.3054068352        1.3681861581
 C         -2.9970060440       -1.9715966135        2.7268904555
 C         -2.4516388839        0.0756196880        1.3504925063
 O         -1.5261544092        0.3850248707        2.0769226630
 N         -2.9422851625        0.9051139408        0.4062159733
 O         -0.2957116652        0.7954166578       -0.5631503974
 O          0.0537670047        2.5841714118        0.7461035146
 C         -2.1925147354        2.1159986547        0.1190094838
 C         -0.7162890055        1.7306741819        0.0705587387
 C         -2.6292630581        2.7026108947       -1.2161097115
 H         -1.5219637304       -3.7087672861       -1.3967031339
 H         -2.9268571615       -3.2011354733       -3.3797468417
 H         -1.2225260324       -3.2123553405       -3.8608096302
 H         -2.0810498594       -1.6766484506       -3.6211345791
 H          2.0569606152       -3.5794426665        0.7717297628
 H          0.0809350804       -1.4568905214       -2.3613452078
 H          2.0011617967       -1.0198354297        0.3087921720
 H          3.9406020229       -2.2224192484       -0.7974153108
 H          2.7589303655       -3.3282400288       -1.5383064205
 H          2.9245333406       -0.3757873783       -1.9290085889
 H          1.3847434315        0.1141877649       -1.6570180399
 H         -1.5919452516       -2.6032420007        0.6767172480
 H         -4.1651349941       -1.2092089627        1.0573720551
 H         -1.9536733322       -1.9817519820        3.0332302047
 H         -3.3693875402       -2.9914670002        2.6821382918
 H         -3.5675769487       -1.4149022895        3.4651494049
 H         -3.4745301750        0.4872058486       -0.3548672599
 H         -2.3333956401        2.8332684107        0.9361085902
 H         -2.4478548962        1.9819639546       -2.0107715462
 H         -2.0757404758        3.6134317821       -1.4294507330
 H         -3.6903505459        2.9358704842       -1.1849385519
 C          1.3795737811        2.2049349369        0.9533766691
 C          2.4196928694        2.9013060254        0.3290966678
 C          1.6424652745        1.1337021692        1.7917602614
 C          3.7337746030        2.4944386416        0.5726983125
 C          3.9999950760        1.4280804291        1.4075530669
 C          2.9546260867        0.7496653086        2.0189265207
 H          0.8108606560        0.6169663854        2.2481309936
 H          5.0190466848        1.1199239909        1.5843334279
 H          3.1589396952       -0.0873791051        2.6692686685
 H          4.5274766526        3.0397008319        0.0839995198
 C          2.1529652374        4.0284106196       -0.5734610359
 O          2.9910972727        4.6215590997       -1.2023725271
 H          1.0835164617        4.3048245019       -0.6401508737
