  56
        -94.15164554
 C          2.7165280673       -1.0954895595       -0.0500170228
 C          4.0067316208       -1.7339567291       -0.5440354252
 C          1.5106249985       -1.9093546723       -0.5422505176
 O          1.2146017214       -1.9414775816       -1.7281861798
 O          0.4012588286        0.2952793071       -0.0770023530
 O          3.5087992694        2.2346594314       -2.3119909965
 N          2.5795888960        0.2417634474       -0.5976963576
 C          1.3775476896        0.8257098881       -0.5962549095
 C          1.2491004593        2.1298962285       -1.3739214080
 C          2.5662690532        2.9104239186       -1.5098303033
 N          0.7424868334        1.8143121729       -2.7142793216
 N          0.8795509717       -2.6233859462        0.3991207926
 C         -0.2691563703       -3.4617150836        0.1011626327
 C         -0.3940831945       -4.5503166121        1.1554522383
 C         -1.5660649331       -2.6244446804        0.0279232568
 O         -2.4840320818       -2.7616437222        0.8089204181
 N         -1.5791232147       -1.7685890595       -1.0101963792
 O         -1.9470108570        1.4852069736       -1.3668987219
 O         -2.2642609888        0.5152527641        0.6474822183
 C         -2.6631323322       -0.8321513453       -1.2275360532
 C         -2.2449117544        0.5398237033       -0.6879145219
 C         -3.0180312229       -0.7555461478       -2.7055921491
 H          2.7006236191       -1.0377536479        1.0453445389
 H          4.8600932034       -1.1160178519       -0.2744082696
 H          3.9708970168       -1.8440462898       -1.6258389044
 H          4.1301040090       -2.7169676356       -0.0972668887
 H          3.0890718172        2.0978358149       -3.1714810961
 H          3.3403514717        0.6502580410       -1.1281685064
 H          0.5180706453        2.7613087382       -0.8605436363
 H          3.0295061768        3.0513084082       -0.5306877504
 H          2.3423777158        3.8932892980       -1.9417008183
 H         -0.2719925603        1.8023127502       -2.6916761881
 H          1.0419960784        0.8811366790       -2.9874803358
 H          1.0379602204       -2.4000059639        1.3726252310
 H         -0.0960092799       -3.8943574269       -0.8921359463
 H          0.5197801171       -5.1365880301        1.2064857031
 H         -1.2265087852       -5.2034557508        0.9107943655
 H         -0.5915439770       -4.1027400203        2.1266036405
 H         -0.7330659281       -1.6537529967       -1.5590052617
 H         -3.5039664936       -1.1926844322       -0.6223758757
 H         -2.1626439606       -0.3997179446       -3.2749416146
 H         -3.8431990730       -0.0652761231       -2.8569156138
 H         -3.3030058815       -1.7385164391       -3.0700375016
 C         -1.6566976331        1.5236383383        1.3728390730
 C         -0.6349210364        1.1569750966        2.2613269189
 C         -2.0119187388        2.8529736000        1.2222987275
 C          0.0164339518        2.1493974961        2.9876687415
 C         -0.3491864499        3.4751574448        2.8492295733
 C         -1.3599945003        3.8234949595        1.9677027223
 H         -2.7858906512        3.1245776240        0.5215533073
 H          0.1568705046        4.2387904625        3.4202189773
 H         -1.6417296234        4.8591095386        1.8501519909
 H          0.8101507233        1.8542912728        3.6577630106
 C         -0.2244316355       -0.2497575479        2.3402003139
 O          0.8337428503       -0.6494303890        2.7693730865
 H         -0.9891224186       -0.9496848315        1.9703275407
