  56
        -94.15511869
 C         -2.2466889197        0.6196381531       -1.8082512837
 C         -1.3578653895        0.5903447387       -3.0492013914
 C         -1.8115797890        1.7748554205       -0.9011805651
 O         -1.4332717409        2.8419369387       -1.3703120031
 O         -4.4395183927       -1.0090255044       -1.1578880784
 O         -2.1632459854       -1.0409422104        1.7686636780
 N         -2.2102880854       -0.6466463931       -1.1173108365
 C         -3.3224367026       -1.3486469832       -0.8242780051
 C         -3.0784505884       -2.5662790081        0.0643019571
 C         -3.1236352122       -2.0339326046        1.5199895792
 N         -4.0799740932       -3.5715035073       -0.2180662627
 N         -1.8854137639        1.5434437432        0.4148609766
 C         -1.3687283440        2.4832131830        1.4001485329
 C         -1.9131977425        2.1480810072        2.7759363689
 C          0.1541948486        2.3293826959        1.3204600869
 O          0.8044134727        1.5945656465        2.0412061281
 N          0.7085709393        3.0264330551        0.3034803297
 O          1.1992121603        0.4720296558       -0.7003927825
 O          3.2601802305        0.6476802414        0.1889075190
 C          2.0461188246        2.6562343371       -0.1099478019
 C          2.0925693512        1.1365170055       -0.2371248521
 C          2.3816988153        3.2977680331       -1.4506067002
 H         -3.2930963079        0.7888673143       -2.0935804337
 H         -0.3362570992        0.3565493954       -2.7557337051
 H         -1.3718770100        1.5659782769       -3.5262192128
 H         -1.7121467062       -0.1607775423       -3.7495959719
 H         -1.2852931880       -1.4047999054        1.5402841027
 H         -1.3008627829       -0.9911655261       -0.8453329557
 H         -2.0824910052       -2.9882356995       -0.1227486061
 H         -2.9917371597       -2.8791454907        2.2121470976
 H         -4.0991502131       -1.5751460030        1.7098450310
 H         -4.9427393828       -3.1022813452       -0.4827458606
 H         -4.2625775232       -4.1475771289        0.5960629589
 H         -2.1257253893        0.6198446331        0.7720701772
 H         -1.6482838193        3.4968058222        1.0905362264
 H         -1.6200407064        1.1373890254        3.0477781291
 H         -2.9976331885        2.2149270437        2.7756937195
 H         -1.5117258091        2.8397610741        3.5113663107
 H          0.0697527788        3.3562895232       -0.4232133336
 H          2.7657954571        2.9516403538        0.6625583420
 H          1.6652202552        2.9736424721       -2.2024340789
 H          3.3833516652        3.0172355470       -1.7660267651
 H          2.3302422057        4.3792762234       -1.3585978684
 C          3.5265616755       -0.7082629440        0.0637316679
 C          2.5743729862       -1.6885889580        0.3563844401
 C          4.7820038116       -1.0657730199       -0.4041049653
 C          2.8966936840       -3.0260216488        0.1301549368
 C          4.1507152639       -3.3826578934       -0.3251680423
 C          5.0974288331       -2.4020171171       -0.5787068935
 H          5.4974082912       -0.2890293734       -0.6239875277
 H          4.3918102141       -4.4223172572       -0.4833772267
 H          6.0811727634       -2.6751307723       -0.9282265626
 H          2.1462890664       -3.7734791087        0.3390714103
 C          1.2623712144       -1.3397427395        0.9228250404
 O          0.2465448658       -1.9682197686        0.7149420432
 H          1.2666948152       -0.4909922024        1.6257261284
