  56
        -94.15164264
 C          2.7038900968       -1.0955005375       -0.0191907650
 C          4.0007621622       -1.7456482258       -0.4788694173
 C          1.5027762400       -1.9017970237       -0.5348772186
 O          1.2185616918       -1.9165902545       -1.7242713188
 O          0.4083072106        0.3188847985       -0.0651944931
 O          3.5292741242        2.1806274032       -2.3434188082
 N          2.5881028585        0.2397065145       -0.5767437886
 C          1.3900326987        0.8325255548       -0.5910010958
 C          1.2724454117        2.1215109144       -1.3949343754
 C          2.5968105102        2.8850260274       -1.5542280948
 N          0.7572547018        1.7800676315       -2.7258831744
 N          0.8586035398       -2.6247333846        0.3901738673
 C         -0.2903936165       -3.4544804603        0.0699437186
 C         -0.4311393870       -4.5553971915        1.1092804969
 C         -1.5827930334       -2.6102936336       -0.0061607608
 O         -2.5102603628       -2.7544203950        0.7621635625
 N         -1.5799258241       -1.7392478411       -1.0317026938
 O         -1.9320985018        1.5217541038       -1.3548526385
 O         -2.2625174732        0.5273086576        0.6456954700
 C         -2.6569458421       -0.7945451578       -1.2481169725
 C         -2.2365269432        0.5691589960       -0.6890824904
 C         -2.9986456657       -0.6993418221       -2.7282400614
 H          2.6622098837       -1.0312962899        1.0750316487
 H          4.8516366862       -1.1326433651       -0.1908258195
 H          3.9912279251       -1.8601993228       -1.5607852627
 H          4.1059358636       -2.7274662789       -0.0248494255
 H          3.1040622436        2.0258987016       -3.1971811984
 H          3.3505301170        0.6272642583       -1.1203647796
 H          0.5497043856        2.7714861226       -0.8932538649
 H          3.0653739649        3.0446936161       -0.5805230701
 H          2.3810970320        3.8594289159       -2.0089130737
 H         -0.2571943394        1.7822467779       -2.6997528230
 H          1.0438978889        0.8366267793       -2.9771110430
 H          1.0107774954       -2.4174611449        1.3682736781
 H         -0.1090683780       -3.8756174193       -0.9268522705
 H         -1.2650528067       -5.2004845969        0.8488552183
 H         -0.6349661072       -4.1188577868        2.0841388635
 H          0.4788035533       -5.1476543821        1.1612881298
 H         -0.7278500188       -1.6222328233       -1.5706117465
 H         -3.5050560149       -1.1574836288       -0.6546454533
 H         -2.1352621627       -0.3461914313       -3.2871306773
 H         -3.8157153569        0.0005892051       -2.8791039425
 H         -3.2902085051       -1.6756346540       -3.1052200441
 C         -1.6541427682        1.5228110391        1.3879746112
 C         -0.6419615099        1.1381148566        2.2799311288
 C         -1.9995376367        2.8562045680        1.2517392112
 C          0.0103192452        2.1168442453        3.0238330811
 C         -0.3454871828        3.4466110826        2.8993765845
 C         -1.3470871424        3.8127474350        2.0145431216
 H         -2.7661805406        3.1419349735        0.5485763604
 H          0.1611939580        4.1996251700        3.4837679615
 H         -1.6211566526        4.8516253772        1.9081102057
 H          0.7968786134        1.8079531549        3.6961527480
 C         -0.2417461235       -0.2718938841        2.3436117271
 O          0.8093381891       -0.6853303597        2.7774533544
 H         -1.0072316540       -0.9613838238        1.9560930740
