  56
        -94.15163914
 C          1.5982603566       -2.3954011119       -0.1069893141
 C          2.4054298128       -3.6670040643       -0.3758810318
 C          0.1445203457       -2.6303873044       -0.5211129492
 O         -0.2022002050       -2.5227699184       -1.6863804600
 O          2.4414472482        0.1189487892        0.8366769854
 O          1.4094981291        0.1157398631       -3.1087195502
 N          2.1170520118       -1.2990816180       -0.8966292414
 C          2.4507239710       -0.1166625515       -0.3676129209
 C          2.9339089101        0.9736497832       -1.3413521176
 C          2.6500389137        0.7149572344       -2.8302064530
 N          2.3993628795        2.2769641093       -0.9666841482
 N         -0.6849888401       -3.0151998866        0.4615193182
 C         -2.1159597642       -3.1654643360        0.2423972756
 C         -2.7106453374       -4.0843675949        1.2962311497
 C         -2.7677201958       -1.7671367262        0.2918068840
 O         -3.4944635555       -1.4023082928        1.1878206483
 N         -2.4454641062       -1.0160810144       -0.7829344693
 O         -0.4214359499        1.1107700180       -1.1072090356
 O         -1.6101617746        1.9061376144        0.6192553263
 C         -2.7184887748        0.4020945217       -0.8289841873
 C         -1.4403209376        1.1510602967       -0.4609919483
 C         -3.1711468581        0.8161420586       -2.2266505230
 H          1.6648417437       -2.1082677635        0.9456193747
 H          2.3221913714       -3.9368208336       -1.4260602841
 H          2.0265493087       -4.4866391261        0.2291839662
 H          3.4524778457       -3.5014954219       -0.1349839432
 H          0.7184399861        0.5583007294       -2.5927525423
 H          1.8847505415       -1.3395562969       -1.8871721126
 H          4.0240575829        1.0337995463       -1.2123440109
 H          3.4053527840        0.0414745619       -3.2454976859
 H          2.7314155825        1.6846663064       -3.3404174647
 H          2.6019898738        2.4462981417        0.0142778975
 H          1.3865397843        2.2558611341       -1.0582676972
 H         -0.4095840695       -2.8560875935        1.4188857647
 H         -2.2425490913       -3.5801785878       -0.7638096357
 H         -3.7598758694       -4.2601451281        1.0779350925
 H         -2.6454747902       -3.6122238971        2.2735502875
 H         -2.1846101251       -5.0354705961        1.3138604961
 H         -1.7535744352       -1.3707523949       -1.4371739268
 H         -3.4809109577        0.6126796825       -0.0725884782
 H         -2.3800932199        0.6120987244       -2.9451083743
 H         -3.4062275334        1.8771294210       -2.2509344740
 H         -4.0564335635        0.2513531030       -2.5050667791
 C         -0.5035450018        2.5323290607        1.1877950683
 C          0.4514891761        1.7928408245        1.8947679356
 C         -0.4074628768        3.9116758316        1.0949168694
 C          1.5027979025        2.4793936432        2.5024084873
 C          1.6094416580        3.8521137740        2.3965171638
 C          0.6513177547        4.5693110115        1.6959738441
 H         -1.1639830477        4.4542744346        0.5493538874
 H          2.4363478324        4.3670461034        2.8609420981
 H          0.7285103896        5.6424398481        1.6137424385
 H          2.2475387881        1.9076287043        3.0342435261
 C          0.3740001077        0.3294929123        2.0294494457
 O         -0.3646130151       -0.4020069154        1.4102528867
 H          1.0182966725       -0.0621359718        2.8350463218
