  56
        -94.15162658
 C         -1.3727564261       -2.7572077841       -1.8249353831
 C         -1.9008389739       -2.7525961417       -3.2497814694
 C         -2.3744371402       -2.0923005866       -0.8612054154
 O         -3.3168349405       -1.4188247840       -1.2425353831
 O          0.6306099703       -2.9203357915        0.1813261941
 O          3.0327884712       -2.0179790926        1.1565888681
 N         -0.1067672930       -2.0492244080       -1.7677849517
 C          0.7826014382       -2.1745985017       -0.7840853251
 C          2.0280140281       -1.3102641842       -0.9636777405
 C          3.2282818720       -1.9402745278       -0.2245600216
 N          2.2628659766       -1.0707136116       -2.3793953307
 N         -2.1069197695       -2.3512606865        0.4265571178
 C         -2.8166713769       -1.6935731847        1.5144836751
 C         -2.5533576285       -2.4237868824        2.8192159180
 C         -2.2848970232       -0.2537078512        1.5511343619
 O         -1.3551133918        0.0954638502        2.2523981165
 N         -2.9039553021        0.5749985317        0.6840272711
 O         -0.3489470545        0.6917033616       -0.4836919217
 O         -0.0299992797        2.4681112151        0.8515571472
 C         -2.2679492614        1.8514570633        0.4064397629
 C         -0.7801434690        1.5811468415        0.2046737676
 C         -2.8429170568        2.4891086624       -0.8494859526
 H         -1.1921388141       -3.7816078746       -1.4746385344
 H         -2.8114828901       -3.3421151372       -3.3067345320
 H         -1.1627531907       -3.1684039435       -3.9306287555
 H         -2.1375478393       -1.7344207818       -3.5483100902
 H          2.1892709158       -2.4854771053        1.2839335814
 H          0.0709527041       -1.3159482756       -2.4405017772
 H          1.7894460101       -0.3495160214       -0.4919708703
 H          4.1187915835       -1.3217232145       -0.3820297820
 H          3.4200222602       -2.9404007282       -0.6494758703
 H          2.6201914175       -1.9135575187       -2.8197481485
 H          2.9556997629       -0.3411999451       -2.5015198504
 H         -1.2028309978       -2.7635458157        0.6529095080
 H         -3.8829789075       -1.6857227557        1.2633290815
 H         -2.8084409748       -3.4758489946        2.7230849401
 H         -3.1470025636       -1.9835212912        3.6155477700
 H         -1.5022667609       -2.3282232951        3.0811535758
 H         -3.4490385684        0.1521916616       -0.0634557364
 H         -2.3805366279        2.5108777157        1.2741005407
 H         -2.3070440336        3.4088689410       -1.0704180520
 H         -3.8967348965        2.7130560417       -0.7057868907
 H         -2.7336854920        1.8067441115       -1.6898095478
 C          1.3409627408        2.2774043926        0.8330600177
 C          2.1524403155        3.1003249681        0.0405574546
 C          1.8893751738        1.2736745143        1.6158343637
 C          3.5349086730        2.9038827658        0.0875998000
 C          4.0834734264        1.9111485189        0.8747521506
 C          3.2616125625        1.0907694200        1.6357749854
 H          1.2262867675        0.6458030385        2.1921177101
 H          5.1534686935        1.7688300113        0.8939986153
 H          3.6807801465        0.2926872446        2.2275970917
 H          4.1710207711        3.5372749837       -0.5143329014
 C          1.5857839761        4.1156397767       -0.8543030768
 O          0.4169775833        4.3315168015       -1.0476166748
 H          2.3655441243        4.6944919077       -1.3913269473
