  56
        -94.15160608
 C         -1.6547013887       -3.0846136784       -1.0221339380
 C         -2.1004517249       -3.4912652695       -2.4166939743
 C         -2.6008558487       -2.0254898191       -0.4244953488
 O         -3.4108262922       -1.4048582143       -1.0922667863
 O          0.1933334828       -2.8025244802        1.1151839965
 O          2.6506268073       -1.9377869160        1.9744562123
 N         -0.3065214783       -2.5486579250       -1.0726090203
 C          0.5022235076       -2.4433536718       -0.0192250463
 C          1.8655166598       -1.8395318297       -0.3458630951
 C          2.9254951563       -2.3327844130        0.6627985907
 N          2.2020343446       -2.1059430489       -1.7362307999
 N         -2.4457606743       -1.8784010409        0.8988002608
 C         -3.1115256889       -0.8206163703        1.6452157319
 C         -3.0312936481       -1.1090829792        3.1336282490
 C         -2.3797255087        0.4780403443        1.2781829200
 O         -1.4512885925        0.9254334711        1.9235427231
 N         -2.8208698400        1.0459202690        0.1366312745
 O         -0.1890853693        0.5178609330       -0.7101123840
 O          0.2578815847        2.5973174756        0.0141213587
 C         -2.0010729917        2.0905755620       -0.4523773130
 C         -0.5504011389        1.6210665419       -0.3883487900
 C         -2.3911843597        2.3430458750       -1.9010769781
 H         -1.6398028505       -3.9487190582       -0.3455075296
 H         -3.0799780439       -3.9584431893       -2.3681783025
 H         -1.3925269327       -4.1905203783       -2.8538775825
 H         -2.1770250109       -2.6093668129       -3.0477524822
 H          1.7428624651       -2.2336535727        2.1611584477
 H          0.0137670318       -2.1139372491       -1.9272601118
 H          1.7431474558       -0.7560844115       -0.2275246512
 H          3.9011928490       -1.9069780148        0.4036958445
 H          2.9962380941       -3.4317680691        0.5921039767
 H          2.4648380767       -3.0806790542       -1.8496520174
 H          2.9915996912       -1.5382915948       -2.0214885892
 H         -1.6239636952       -2.2972100891        1.3324569355
 H         -4.1495077431       -0.7678141820        1.2988388817
 H         -3.5963201797       -0.3631711216        3.6856620079
 H         -1.9937400804       -1.0617081397        3.4557489294
 H         -3.4333703636       -2.0951039754        3.3509463552
 H         -3.3772235910        0.4726879714       -0.4927822406
 H         -2.0898470170        3.0040905559        0.1461670142
 H         -1.7347480114        3.0960154601       -2.3301129602
 H         -3.4191936026        2.6919266161       -1.9550233461
 H         -2.2958189056        1.4224608668       -2.4730394281
 C          1.5887163878        2.2922293942        0.2299722191
 C          2.5745857976        2.8802542743       -0.5744446047
 C          1.9296256942        1.4296253245        1.2601796290
 C          3.9127444756        2.5964453300       -0.2907750610
 C          4.2534450121        1.7384635646        0.7358105712
 C          3.2623593024        1.1499848788        1.5096859027
 H          1.1408453336        0.9906140877        1.8528249696
 H          5.2923168097        1.5231500000        0.9353930905
 H          3.5175844518        0.4577761096        2.2965495152
 H          4.6811748636        3.0512490665       -0.8996296608
 C          2.2328155979        3.7369986117       -1.7153542676
 O          1.1276133295        3.9722682389       -2.1314617876
 H          3.1287582844        4.1622304723       -2.2134522812
