  56
        -94.15156935
 C         -2.0944271450       -2.4339968786       -1.2768152223
 C         -2.4414658858       -2.3655435550       -2.7607181033
 C         -2.8995063053       -1.4021058186       -0.4808344969
 O         -3.7705509469       -0.7090534899       -0.9814822656
 O         -0.0816027951       -4.2816533973       -0.5058705065
 O          0.2932925102       -1.3891121198        1.6237290630
 N         -0.6885596223       -2.1680206664       -1.0434135966
 C          0.1790491187       -3.0989923351       -0.6039461701
 C          1.5366458216       -2.5249568468       -0.1732667253
 C          1.4074269728       -2.1901687722        1.3278895765
 N          2.6315789294       -3.4610399772       -0.3439927729
 N         -2.5413073769       -1.3064386101        0.8127751991
 C         -3.0023394986       -0.2094900608        1.6534220388
 C         -2.8174329785       -0.5630534079        3.1172234895
 C         -2.1280729976        0.9759041120        1.2386891007
 O         -1.1106174328        1.3023793849        1.8284154043
 N         -2.4858644649        1.5620693584        0.0821939455
 O          0.1291785647        0.6321150452       -0.5356494392
 O          0.7527781494        2.6678539330        0.1473642553
 C         -1.4992210544        2.4153627621       -0.5610655047
 C         -0.1337541275        1.7918505655       -0.2941057936
 C         -1.7347107394        2.4904779804       -2.0627872995
 H         -2.2944424935       -3.4410967372       -0.8904590583
 H         -3.5108206863       -2.5011104054       -2.8927594034
 H         -1.9085986596       -3.1412750609       -3.3031738448
 H         -2.1657555984       -1.3939806660       -3.1642887405
 H          0.3699502170       -0.5462935820        1.1517027269
 H         -0.3939264577       -1.2009391173       -1.0868232604
 H          1.7561516216       -1.6072936485       -0.7296679468
 H          2.3393897521       -1.7183770181        1.6643663925
 H          1.2647701849       -3.1200350319        1.8849281040
 H          2.8015345865       -3.6144254973       -1.3331028001
 H          2.3458199870       -4.3573225424        0.0439415614
 H         -1.6886591609       -1.7572507347        1.1325138299
 H         -4.0500636922       -0.0118121107        1.4051901260
 H         -3.3677528293       -1.4682034069        3.3582714435
 H         -3.1738207892        0.2501389150        3.7431835929
 H         -1.7596007590       -0.7187109948        3.3156436123
 H         -3.2169589422        1.1414759819       -0.4842322133
 H         -1.5113145872        3.4131963493       -0.1073195884
 H         -2.6841218772        2.9778586787       -2.2676064652
 H         -1.7510366433        1.4879331035       -2.4849661694
 H         -0.9318808184        3.0542764982       -2.5313246616
 C          2.0156292459        2.1618210603        0.4322267641
 C          3.0181689553        2.1774330927       -0.5454868078
 C          2.2476154097        1.6278720582        1.6887748498
 C          4.2752314953        1.6707960757       -0.2078470835
 C          4.5153376431        1.1510171187        1.0484069635
 C          3.5006408174        1.1241943784        1.9946837487
 H          1.4336956994        1.6037546207        2.3979368400
 H          5.4895198168        0.7551484028        1.2904757240
 H          3.6822141739        0.7041688804        2.9721119669
 H          5.0581439115        1.6800374367       -0.9520648548
 C          2.7643927107        2.6633850794       -1.9081600600
 O          1.7158119713        3.0695177746       -2.3395493017
 H          3.6614177667        2.6067152001       -2.5567660217
