  56
        -94.15153544
 C          0.8782504083       -1.4383796510       -2.5350836180
 C          0.0565855579       -2.7039067564       -2.3113049674
 C          1.7373220486       -1.1227592842       -1.2940542345
 O          1.8785829409       -1.9124335137       -0.3846877737
 O         -0.3637704264        0.1692567241       -0.6523792135
 O         -3.8802220621        1.8587844467       -2.8119110106
 N          0.0317125459       -0.2883214771       -2.8199371103
 C         -0.5897776323        0.3913519605       -1.8284319329
 C         -1.5457063332        1.4827256163       -2.2975052940
 C         -2.9775306217        0.9139681947       -2.3157782422
 N         -1.5494444031        2.6608593129       -1.4518234275
 N          2.4059800165        0.0462088265       -1.4024169971
 C          2.9315233798        0.7458539112       -0.2429038459
 C          4.2247683240        1.4683636366       -0.5988397173
 C          1.8406978048        1.7554248542        0.1582999686
 O          1.4281548676        2.5736366676       -0.6471464119
 N          1.4160956757        1.6499141223        1.4251273244
 O         -2.0654418226        1.4630187610        1.3511535843
 O         -0.4754389730        0.0331308739        2.1112225708
 C          0.1749575491        2.2512022251        1.8676034107
 C         -0.9481736782        1.2159783131        1.7186071420
 C          0.2792653499        2.6850292741        3.3275653900
 H          1.5561676822       -1.5699369082       -3.3868865894
 H          0.7190692551       -3.5236666682       -2.0508242003
 H         -0.5041092444       -2.9602593294       -3.2072730311
 H         -0.6326193890       -2.5458006109       -1.4852875996
 H         -3.6734645032        2.6936893276       -2.3681982806
 H         -0.2916102919       -0.1689563859       -3.7673138053
 H         -1.2736537385        1.7992419332       -3.3127632199
 H         -3.2417953388        0.6161833184       -1.2900638681
 H         -3.0436210673        0.0370107155       -2.9658101244
 H         -0.6004295505        3.0123686075       -1.3490138725
 H         -1.8711149705        2.4025758273       -0.5208319039
 H          2.1329355995        0.6750912057       -2.1472596100
 H          3.0906347333        0.0052640274        0.5436183439
 H          4.6424390541        1.9337407860        0.2896168128
 H          4.0222801823        2.2426428089       -1.3359361047
 H          4.9481562294        0.7665661558       -1.0056739035
 H          1.6875713733        0.8190384903        1.9489738107
 H         -0.0464945805        3.1046996373        1.2191401464
 H         -0.6638931544        3.1117196207        3.6586838065
 H          1.0625885340        3.4306333078        3.4347924686
 H          0.5214818465        1.8268008362        3.9499718330
 C         -0.9696785812       -1.1856319729        1.7359362549
 C         -0.0314457007       -2.2354147958        1.7216271048
 C         -2.2897347313       -1.4157634320        1.3774081060
 C         -0.4608159182       -3.5042375081        1.3362482376
 C         -1.7732017352       -3.7313828047        0.9721123178
 C         -2.6832089994       -2.6853740721        0.9911517390
 H         -2.9962110584       -0.6020104371        1.3861422548
 H         -2.0892972472       -4.7179045594        0.6684071201
 H         -3.7099525532       -2.8559997145        0.7033754894
 H          0.2586361842       -4.3088349996        1.3107584787
 C          1.3826926979       -2.0392318683        2.0610046262
 O          1.9094036320       -1.0186208440        2.4411716607
 H          1.9701531383       -2.9698012047        1.9825347100
