  56
        -94.15151922
 C         -2.3417284302       -2.2464576858       -1.2780013334
 C         -2.6837154848       -2.1246033438       -2.7597355322
 C         -3.0347614442       -1.1467033168       -0.4676073197
 O         -3.8458176570       -0.3752942913       -0.9546844857
 O         -0.5476304208       -4.3040217118       -0.5147053183
 O          0.1714329943       -1.4468342020        1.5893407410
 N         -0.9148330757       -2.1353147387       -1.0484059012
 C         -0.1543386221       -3.1589040344       -0.6153661921
 C          1.2633690155       -2.7442701144       -0.1966544659
 C          1.1840854998       -2.3747458143        1.2998524923
 N          2.2376705963       -3.8066379286       -0.3576722377
 N         -2.6509984271       -1.0884336155        0.8205552950
 C         -2.9973300888        0.0426863078        1.6709604246
 C         -2.8271330818       -0.3333882791        3.1309078991
 C         -2.0226861233        1.1443349523        1.2489727573
 O         -0.9786623352        1.3836415479        1.8338085608
 N         -2.3312735745        1.7533190550        0.0900637210
 O          0.1893605363        0.5882539013       -0.5219075842
 O          0.9949040143        2.5765051674        0.1147767540
 C         -1.2749583015        2.5109170360       -0.5607989029
 C          0.0314910264        1.7701438104       -0.2950315923
 C         -1.5073672240        2.6022996814       -2.0621472993
 H         -2.6457864683       -3.2314350418       -0.9025007218
 H         -2.2405721237       -2.9478977530       -3.3127208071
 H         -2.3047050253       -1.1847007464       -3.1545640691
 H         -3.7618765762       -2.1409457119       -2.8884888264
 H          0.3324175681       -0.6319024633        1.0893508576
 H         -0.5155969887       -1.2066593460       -1.0938694235
 H          1.5876068535       -1.8673206807       -0.7674800764
 H          2.1664746488       -2.0075634146        1.6229804074
 H          0.9410646619       -3.2737090808        1.8726163053
 H          2.3868281223       -3.9903330748       -1.3449196977
 H          1.8475202780       -4.6579466081        0.0404729681
 H         -1.8396796006       -1.6176164234        1.1276612733
 H         -4.0253004206        0.3379649556        1.4373908234
 H         -1.7859375791       -0.5878779414        3.3145766836
 H         -3.4562962998       -1.1843678323        3.3763541684
 H         -3.0976780410        0.5066467240        3.7643363131
 H         -3.1033125161        1.4018665490       -0.4691043245
 H         -1.1951456916        3.5081678814       -0.1124440177
 H         -1.6047488620        1.6040704249       -2.4836376975
 H         -0.6639575513        3.1016745449       -2.5327492766
 H         -2.4156141723        3.1634037252       -2.2651032090
 C          2.2168073256        1.9864701306        0.4103755671
 C          3.2647400540        2.0460840474       -0.5166914428
 C          2.3717755752        1.3454903046        1.6284498039
 C          4.4882266124        1.4713198507       -0.1653979413
 C          4.6507576905        0.8410399419        1.0522194021
 C          3.5914831972        0.7723993591        1.9461308872
 H          1.5276552265        1.3017230859        2.3008796831
 H          5.5996882222        0.3937354637        1.3049631434
 H          3.7133694102        0.2690746420        2.8930044908
 H          5.3062781719        1.5152192350       -0.8695538773
 C          3.0883768935        2.6461608865       -1.8458813896
 O          2.0637401606        3.0855519260       -2.3011438577
 H          4.0212759365        2.6434440036       -2.4445265483
