  56
        -94.15151510
 C         -2.3606157961       -2.2352727854       -1.2769949103
 C         -2.7051142202       -2.1157198110       -2.7583076735
 C         -3.0446513006       -1.1289480494       -0.4680660404
 O         -3.8493041595       -0.3513906108       -0.9559620913
 O         -0.5784232124       -4.3041673308       -0.5191972195
 O          0.1583091652       -1.4526096695        1.5881724861
 N         -0.9325690208       -2.1326325193       -1.0500220588
 C         -0.1781455706       -3.1613461994       -0.6183356576
 C          1.2418268630       -2.7558958285       -0.1985588848
 C          1.1635988108       -2.3884709385        1.2985114975
 N          2.2099555886       -3.8236881771       -0.3608261698
 N         -2.6604034181       -1.0724674402        0.8200526827
 C         -2.9984056773        0.0618478502        1.6694801027
 C         -2.8317802813       -0.3144690841        3.1297875964
 C         -2.0152828564        1.1558406173        1.2474080741
 O         -0.9700507652        1.3879650742        1.8330074797
 N         -2.3184407693        1.7663222026        0.0879047166
 O          0.1956886549        0.5848607237       -0.5202370200
 O          1.0130815856        2.5688068023        0.1157109028
 C         -1.2562265803        2.5170671829       -0.5611848115
 C          0.0450752020        1.7677789528       -0.2937465113
 C         -1.4852157520        2.6109182369       -2.0628804653
 H         -2.6701471206       -3.2173120911       -0.8981837570
 H         -2.2676645137       -2.9430499715       -3.3097894219
 H         -2.3220910420       -1.1790159186       -3.1567817171
 H         -3.7836447560       -2.1267753677       -2.8845836930
 H          0.3265148022       -0.6385287749        1.0891293373
 H         -0.5277223932       -1.2063228727       -1.0940271860
 H          1.5715362875       -1.8798820823       -0.7676698827
 H          2.1485435421       -2.0300517471        1.6236385842
 H          0.9122814059       -3.2863836037        1.8693730136
 H          2.3579789698       -4.0070924031       -1.3483020724
 H          1.8149727578       -4.6732145517        0.0363370357
 H         -1.8531548705       -1.6074741467        1.1278712826
 H         -4.0239844259        0.3647953547        1.4351690609
 H         -3.4686286357       -1.1595031032        3.3759306739
 H         -3.0947623262        0.5285627589        3.7624201609
 H         -1.7929430421       -0.5781596446        3.3138472011
 H         -3.0921639435        1.4197681350       -0.4720094401
 H         -1.1705161029        3.5135590862       -0.1122143798
 H         -1.5864562841        1.6136194400       -2.4856647350
 H         -0.6384387063        3.1068151441       -2.5311326154
 H         -2.3903134512        3.1766108628       -2.2671417219
 C          2.2321678069        1.9734383645        0.4115179179
 C          3.2825943180        2.0352365754       -0.5125989448
 C          2.3826778559        1.3261119873        1.6267913702
 C          4.5037103441        1.4554983919       -0.1613281723
 C          4.6617049144        0.8185975616        1.0534247318
 C          3.6001410104        0.7483266047        1.9444827513
 H          1.5371098364        1.2817843676        2.2973753826
 H          5.6089222564        0.3677032265        1.3062246955
 H          3.7185842853        0.2402971224        2.8892763062
 H          5.3235889306        1.5010068267       -0.8632448806
 C          3.1110756257        2.6431282838       -1.8388572995
 O          2.0890120265        3.0887041277       -2.2938307682
 H          4.0451777946        2.6402141179       -2.4356019472
