  56
        -94.15144488
 C          0.3371153900       -3.0318505367       -1.5647365554
 C          0.1323163586       -3.1389146098       -3.0659657921
 C         -1.0072618456       -2.9823699662       -0.8187168227
 O         -2.0842792109       -2.8720984472       -1.3822920887
 O          1.8807563715       -2.5277990939        0.7379583468
 O          3.8751199229        1.0763224286        1.3945412170
 N          1.0709227768       -1.8178073179       -1.2469855562
 C          1.7441557025       -1.6481008625       -0.1023708787
 C          2.2923965596       -0.2400252516        0.0837767740
 C          3.4977082117       -0.2304841078        1.0447661467
 N          2.5554377079        0.3876427629       -1.2024867353
 N         -0.8620146958       -3.0456682161        0.5139978639
 C         -1.9292516910       -2.6898677619        1.4382283332
 C         -1.5139914684       -3.0266772876        2.8586978673
 C         -2.1493426756       -1.1801298640        1.2542650817
 O         -1.5714053457       -0.3287908723        1.9006300133
 N         -3.0199330359       -0.8830781782        0.2624800767
 O         -0.9023294295        0.3546032151       -1.1597866281
 O         -1.4880703283        2.2196533990       -0.0511141974
 C         -3.1054806129        0.4964596804       -0.1733593042
 C         -1.7021807432        0.9860220462       -0.5246823291
 C         -4.0047630271        0.6055715256       -1.3981354349
 H          0.9219517633       -3.8761326479       -1.1799326176
 H          1.0891031336       -3.1303122531       -3.5807580735
 H         -0.4713326878       -2.3029586530       -3.4102040910
 H         -0.3939711426       -4.0596711592       -3.3008881743
 H          3.2072018684        1.4412589533        1.9974461401
 H          0.8704508547       -0.9849356739       -1.7860300114
 H          1.4731631149        0.3206836451        0.5571894602
 H          4.3630639704       -0.6756517026        0.5433632046
 H          3.2576280930       -0.8348345308        1.9261465846
 H          3.3213688614       -0.0980252548       -1.6616759968
 H          2.8649093379        1.3416150589       -1.0407551514
 H          0.0835307178       -3.0545338576        0.8936920895
 H         -2.8374508899       -3.2283681097        1.1441782413
 H         -1.2360534760       -4.0746010593        2.9324771156
 H         -2.3336942554       -2.8252467714        3.5429376329
 H         -0.6662750762       -2.4079468828        3.1438129067
 H         -3.1662767683       -1.6001549708       -0.4471445493
 H         -3.4834434809        1.1078201765        0.6537927546
 H         -4.9948007511        0.2261280095       -1.1595683957
 H         -3.5869118063        0.0177282563       -2.2127753939
 H         -4.0917709852        1.6422368511       -1.7133394684
 C         -0.2742432672        2.8326653207       -0.3504849685
 C          0.7382227643        2.8940692787        0.6130467931
 C         -0.0876005812        3.3876906801       -1.6053048833
 C          1.9279382951        3.5515851596        0.2904669493
 C          2.1057928330        4.1222036984       -0.9540125979
 C          1.0998585960        4.0342688927       -1.9039937901
 H         -0.8744044118        3.3082830784       -2.3399482506
 H          3.0304085574        4.6268009183       -1.1887703771
 H          1.2383210663        4.4667149774       -2.8830592446
 H          2.7066774175        3.5950743443        1.0372638399
 C          0.5891568567        2.2491789401        1.9285513073
 O          1.5051742288        2.0993271896        2.7037130699
 H         -0.4213070373        1.8802830402        2.1600320087
