  56
        -94.15144323
 C          0.3459251283       -3.0278421189       -1.5634317020
 C          0.1373958885       -3.1318885936       -3.0643411012
 C         -0.9965604291       -2.9875166882       -0.8134970349
 O         -2.0758884023       -2.8827744215       -1.3735777021
 O          1.8929093245       -2.5188872834        0.7367915144
 O          3.8706316728        1.0966472277        1.3893780346
 N          1.0733496542       -1.8101530233       -1.2446885369
 C          1.7486991865       -1.6385538770       -0.1016092935
 C          2.2892122934       -0.2276092486        0.0853885389
 C          3.4961618889       -0.2122484027        1.0442654571
 N          2.5470868318        0.4025546260       -1.2007071956
 N         -0.8469051408       -3.0512969291        0.5188063561
 C         -1.9121894895       -2.6978449028        1.4461898680
 C         -1.4905995987       -3.0304994367        2.8657621488
 C         -2.1375479561       -1.1891388155        1.2599575082
 O         -1.5575871054       -0.3348044573        1.9005545184
 N         -3.0150065677       -0.8967339999        0.2728105190
 O         -0.9140131859        0.3487294239       -1.1719246208
 O         -1.4932865432        2.2074521366       -0.0491789125
 C         -3.1084119313        0.4818048872       -0.1648475855
 C         -1.7094100096        0.9758036428       -0.5269872625
 C         -4.0170244773        0.5854660181       -1.3831636185
 H          0.9366813932       -3.8697194702       -1.1824446865
 H          1.0926334529       -3.1171581696       -3.5818638574
 H         -0.4713022179       -2.2978927693       -3.4044271980
 H         -0.3850805138       -4.0545457282       -3.3002919493
 H          3.2030706074        1.4619246600        1.9924568860
 H          0.8669550967       -0.9777527665       -1.7823038504
 H          1.4677755146        0.3282552230        0.5608050950
 H          4.3618133988       -0.6565046181        0.5425917176
 H          3.2593493078       -0.8146925834        1.9278205923
 H          3.3138700803       -0.0797943722       -1.6619748633
 H          2.8536626978        1.3573777905       -1.0383880134
 H          0.0999038334       -3.0559340058        0.8954733952
 H         -2.8195751381       -3.2399898015        1.1564320688
 H         -2.3086230970       -2.8310723488        3.5525931151
 H         -0.6442476643       -2.4079879577        3.1466946444
 H         -1.2083002771       -4.0771969403        2.9403647040
 H         -3.1627989031       -1.6153909974       -0.4348524176
 H         -3.4824786394        1.0930686545        0.6641374620
 H         -4.1106340039        1.6213087368       -1.6991919340
 H         -5.0037150731        0.2022773499       -1.1368477119
 H         -3.6026115149       -0.0017723585       -2.1999888126
 C         -0.2835738640        2.8247293589       -0.3554843745
 C          0.7288968087        2.8999824129        0.6071101319
 C         -0.1004635331        3.3701028456       -1.6150473661
 C          1.9145672215        3.5619118276        0.2788461039
 C          2.0885733193        4.1234104190       -0.9703519892
 C          1.0830781575        4.0212136404       -1.9193797126
 H         -0.8867788671        3.2797336669       -2.3489401419
 H          3.0100114343        4.6317136977       -1.2095628828
 H          1.2188309212        4.4461115704       -2.9021185454
 H          2.6932498740        3.6160467205        1.0250130608
 C          0.5843082749        2.2633445030        1.9270547540
 O          1.5021646564        2.1213514462        2.7015007215
 H         -0.4242092416        1.8911675288        2.1617838418
