  56
        -94.15511435
 C         -2.2356150124        0.6284153237       -1.8079193750
 C         -1.3293151940        0.5876752867       -3.0359248593
 C         -1.7977781843        1.7791337284       -0.8962817377
 O         -1.4204051289        2.8478084531       -1.3626388297
 O         -4.4620654932       -0.9497411056       -1.1454688037
 O         -2.1596444895       -1.0436353567        1.7634157271
 N         -2.2247484199       -0.6388565740       -1.1181467936
 C         -3.3510456294       -1.3154455828       -0.8195435089
 C         -3.1291698774       -2.5412440269        0.0639822236
 C         -3.1454030255       -2.0132363675        1.5218006402
 N         -4.1589603289       -3.5194437898       -0.2110181724
 N         -1.8666235493        1.5423951192        0.4189779351
 C         -1.3447770065        2.4770417828        1.4065368600
 C         -1.8831074082        2.1354414195        2.7831194325
 C          0.1773008295        2.3207842292        1.3177717194
 O          0.8298930614        1.5796864260        2.0301289547
 N          0.7273636963        3.0209418756        0.3008493290
 O          1.2088553921        0.4629782443       -0.7079609892
 O          3.2643410423        0.6340211939        0.1944313830
 C          2.0600710655        2.6465410831       -0.1254512299
 C          2.1021429531        1.1257743424       -0.2414746975
 C          2.3771777159        3.2764019637       -1.4761586759
 H         -3.2755016527        0.8121227626       -2.1075740024
 H         -0.3149091168        0.3423502491       -2.7272551416
 H         -1.3251612280        1.5629610537       -3.5138529111
 H         -1.6818882193       -0.1598888367       -3.7409887930
 H         -1.2925619429       -1.4231016117        1.5191452943
 H         -1.3220925610       -1.0039126412       -0.8501654496
 H         -2.1462452586       -2.9879332445       -0.1349105893
 H         -3.0257166733       -2.8638980903        2.2095478350
 H         -4.1077009011       -1.5324569180        1.7244279034
 H         -5.0120857737       -3.0273416400       -0.4653275305
 H         -4.3477283542       -4.0938982627        0.6028113982
 H         -2.1078740488        0.6179461024        0.7733597060
 H         -1.6245031475        3.4925174401        1.1034169009
 H         -1.5908443666        1.1226389534        3.0480327943
 H         -2.9673868716        2.2045759784        2.7885211620
 H         -1.4766125221        2.8222062559        3.5203722976
 H          0.0844803965        3.3568725638       -0.4195365379
 H          2.7899935741        2.9477794852        0.6350436583
 H          3.3738548607        2.9924616612       -1.8040286910
 H          2.3276546587        4.3587050160       -1.3927409433
 H          1.6494901872        2.9462675388       -2.2145324897
 C          3.5278227650       -0.7228886905        0.0735264487
 C          2.5681359264       -1.7011207937        0.3482302890
 C          4.7902329478       -1.0832222584       -0.3731538044
 C          2.8906200155       -3.0388786059        0.1244420871
 C          4.1512401690       -3.3982992435       -0.3100479013
 C          5.1051128763       -2.4199506159       -0.5447334913
 H          5.5114780571       -0.3080135869       -0.5789097158
 H          4.3918876819       -4.4383574929       -0.4663586280
 H          6.0942173507       -2.6950477722       -0.8771403924
 H          2.1347080155       -3.7846888177        0.3188535933
 C          1.2489212109       -1.3507513204        0.8972290898
 O          0.2337623576       -1.9754331646        0.6737770673
 H          1.2476133932       -0.5074401630        1.6065569009
