  56
        -94.15142224
 C         -0.7361673266       -2.0724048374       -0.2314029116
 C          0.1761592553       -2.6738331981        0.8317810356
 C          0.0476183785       -1.1444188443       -1.1709733296
 O          1.2670601563       -1.1101249761       -1.1969038911
 O         -3.4712011604       -2.7553228852       -0.0773292925
 O         -3.5376457660        0.3668085019       -1.5614059760
 N         -1.8048988148       -1.2927165402        0.3563386687
 C         -3.1013338195       -1.6610137496        0.2983762764
 C         -4.0925307087       -0.5497249452        0.6611478674
 C         -4.5818908571        0.0176211114       -0.6916336701
 N         -5.2453857500       -1.0259962374        1.4020390672
 N         -0.7423770100       -0.3812661709       -1.9461821381
 C         -0.2905655572        0.8396582337       -2.5936629429
 C         -1.1265355443        1.1247648357       -3.8303966095
 C         -0.4782971959        1.9041480261       -1.5016045157
 O         -1.5852327365        2.2324327228       -1.1038221033
 N          0.6554698476        2.3647312635       -0.9463837976
 O          0.0665014509        0.8599904258        1.5466414548
 O          2.2316102719        1.4253514746        1.3081181537
 C          0.6476749085        2.9104431910        0.4048129968
 C          0.9212811336        1.6387103158        1.2074548852
 C          1.6847850757        4.0046672615        0.5706529043
 H         -1.2135593389       -2.8685303747       -0.8160076439
 H          0.5313277484       -1.8880237097        1.4941524483
 H          1.0338601062       -3.1425988931        0.3584212267
 H         -0.3672796963       -3.4127243819        1.4137495053
 H         -3.0785285195        1.1705015463       -1.2460807906
 H         -1.5332700386       -0.4182852206        0.7849675381
 H         -3.5964584749        0.2382311392        1.2377790835
 H         -5.2493197003        0.8651720121       -0.5010621852
 H         -5.1485642471       -0.7660921588       -1.2025465529
 H         -4.9593368898       -1.3398113245        2.3241286251
 H         -5.6255812648       -1.8351564876        0.9172943794
 H         -1.7545440622       -0.4374888873       -1.8321588033
 H          0.7697814790        0.7242842407       -2.8371170687
 H         -1.0203908096        0.3141698754       -4.5459905936
 H         -0.8007858549        2.0525310898       -4.2930022099
 H         -2.1732211041        1.2145387290       -3.5509013370
 H          1.5574887859        1.9960212300       -1.2431914818
 H         -0.3677617684        3.2620601114        0.6118572405
 H          1.4384428806        4.8403590266       -0.0787280694
 H          2.6691560950        3.6287531003        0.3057617145
 H          1.7023912012        4.3513699736        1.6002952959
 C          2.6954558211        0.1534933934        1.6109388156
 C          3.3259120628       -0.5770866621        0.5940119561
 C          2.5473310965       -0.3709662153        2.8830179602
 C          3.8167050236       -1.8445295811        0.9044214511
 C          3.6836350450       -2.3661451612        2.1765045309
 C          3.0464148811       -1.6319027130        3.1645734289
 H          2.0398446344        0.2081277204        3.6394138931
 H          4.0673065130       -3.3497163682        2.3999067494
 H          2.9302841992       -2.0415608499        4.1562058142
 H          4.2975208522       -2.4194997991        0.1274346852
 C          3.4470683496       -0.0693077406       -0.7807263615
 O          3.1727005112        1.0434156669       -1.1643683774
 H          3.8761063108       -0.8115883359       -1.4739122618
