  56
        -94.15142138
 C         -0.7318894927       -2.0736891761       -0.2405578171
 C          0.1829274033       -2.6793850283        0.8180433031
 C          0.0494602608       -1.1413644939       -1.1777840146
 O          1.2687888957       -1.1044779414       -1.2047309579
 O         -3.4662076139       -2.7585909867       -0.0806727866
 O         -3.5381440434        0.3663353147       -1.5571754426
 N         -1.7994174797       -1.2963713681        0.3524643221
 C         -3.0958186709       -1.6650471233        0.2967556577
 C         -4.0864187012       -0.5550354195        0.6650565190
 C         -4.5797980412        0.0150702423       -0.6851114781
 N         -5.2370120194       -1.0332857129        1.4082199128
 N         -0.7426781231       -0.3774902491       -1.9501725596
 C         -0.2928934323        0.8454641860       -2.5952489472
 C         -1.1303224902        1.1327131664       -3.8304972019
 C         -0.4807034904        1.9071686798       -1.5005640435
 O         -1.5876610615        2.2346616723       -1.1022138723
 N          0.6530049385        2.3667419655       -0.9442722440
 O          0.0625323575        0.8579887964        1.5453743755
 O          2.2277087786        1.4247934592        1.3118592003
 C          0.6446850074        2.9104501896        0.4077359944
 C          0.9175091645        1.6377206708        1.2089881121
 C          1.6821153946        4.0040500993        0.5757251706
 H         -1.2104958044       -2.8674547004       -0.8273882580
 H          0.5388876010       -1.8964656428        1.4834212229
 H          1.0400089300       -3.1454223305        0.3408205647
 H         -0.3589543907       -3.4213097516        1.3976004807
 H         -3.0790812120        1.1700988370       -1.2419710346
 H         -1.5272224544       -0.4230499519        0.7830197327
 H         -3.5890647338        0.2318971849        1.2419685447
 H         -5.2468139380        0.8621149037       -0.4909323001
 H         -5.1477310960       -0.7677790288       -1.1959521887
 H         -4.9482170469       -1.3490148317        2.3288173869
 H         -5.6182810792       -1.8415274568        0.9227702316
 H         -1.7546281416       -0.4351686875       -1.8349364481
 H          0.7673147731        0.7316827568       -2.8400545500
 H         -0.8054623289        2.0615423092       -4.2916219056
 H         -2.1767226167        1.2215504534       -3.5496136822
 H         -1.0246606110        0.3235506317       -4.5477894618
 H          1.5550553432        1.9984311425       -1.2413750817
 H         -0.3707806795        3.2620728452        0.6147121024
 H          2.6664303951        3.6282789680        0.3103934150
 H          1.6995967674        4.3490330425        1.6059467962
 H          1.4361393660        4.8408666674       -0.0723285187
 C          2.6916435827        0.1526806118        1.6132559785
 C          3.3249096734       -0.5753572686        0.5962140748
 C          2.5410903846       -0.3744951230        2.8839248772
 C          3.8161448864       -1.8429954033        0.9051396438
 C          3.6806322308       -2.3673164066        2.1758586405
 C          3.0405146561       -1.6356519762        3.1639659609
 H          2.0314510782        0.2025931444        3.6404010769
 H          4.0646571642       -3.3509961523        2.3981476836
 H          2.9226597548       -2.0473615769        4.1545494911
 H          4.2991217917       -2.4160192263        0.1280557081
 C          3.4488402178       -0.0643870567       -0.7770827419
 O          3.1734449690        1.0486382802       -1.1589706872
 H          3.8807248988       -0.8045099143       -1.4708283684
