  56
        -94.15142086
 C         -1.2595124225       -0.9156504178       -1.5668278659
 C         -0.1862708030       -1.8742979296       -2.0704733836
 C         -0.6932425489        0.5005160518       -1.3869280750
 O          0.3888652805        0.8390856311       -1.8379036031
 O         -3.8096634282       -2.0138785753       -1.0582053847
 O         -3.6578849051        0.6339011233        1.1609299055
 N         -1.7968025092       -1.3347663573       -0.2896848049
 C         -3.0662743172       -1.7627379111       -0.1309628749
 C         -3.5373062574       -1.8248392487        1.3262436482
 C         -4.3455184426       -0.5256306544        1.5499457488
 N         -4.4027552189       -2.9557788277        1.6034479630
 N         -1.5029711976        1.3132394003       -0.6860426642
 C         -1.0445178694        2.5243747309       -0.0250078523
 C         -2.1906709448        3.5100335206        0.1311790615
 C         -0.5258527256        2.0087339846        1.3264087390
 O         -1.2742584917        1.5325177500        2.1658090263
 N          0.8099184375        2.0212989852        1.4725576504
 O          0.8804487465       -0.9404108423        1.2247618879
 O          2.8474887687        0.0654564343        0.7956288145
 C          1.4614768037        1.0964214860        2.3910499942
 C          1.6998468794       -0.0870640701        1.4533240439
 C          2.7182579759        1.6978211536        2.9904689339
 H         -2.1028780571       -0.8875442708       -2.2678474215
 H         -0.6278585606       -2.8397612900       -2.3004184057
 H          0.5753908359       -2.0028487772       -1.3050918414
 H          0.2824646355       -1.4670099329       -2.9614881637
 H         -2.9265091632        0.8270297390        1.7807025097
 H         -1.1755557990       -1.2487814697        0.5032194268
 H         -2.6813689684       -1.8528572687        2.0089332123
 H         -4.6574300127       -0.4772168036        2.5990183495
 H         -5.2391276727       -0.5698386361        0.9207896382
 H         -3.8764298243       -3.8209077872        1.5320121636
 H         -5.1260767066       -2.9879751812        0.8892672906
 H         -2.3735650138        0.9409770489       -0.3063362340
 H         -0.2241180937        2.9449696266       -0.6140388010
 H         -2.5725730696        3.7937256461       -0.8456029483
 H         -1.8466760605        4.4002337237        0.6508814644
 H         -2.9922067346        3.0504787623        0.7039405851
 H          1.4047289134        2.3411658440        0.7098666224
 H          0.7273667199        0.8169018076        3.1529935356
 H          3.3967872245        2.0078840272        2.2005677790
 H          3.2182472964        0.9685818401        3.6220603949
 H          2.4555733995        2.5639826459        3.5917222724
 C          3.0611607055       -0.6397774058       -0.3797151278
 C          3.0418156220        0.0715318536       -1.5876048066
 C          3.2965628320       -2.0032924660       -0.3555729178
 C          3.2836347886       -0.6314562114       -2.7669916546
 C          3.5330778571       -1.9898549504       -2.7461500718
 C          3.5361182183       -2.6764974064       -1.5420333336
 H          3.2857824570       -2.5265092205        0.5884415663
 H          3.7165355832       -2.5195990774       -3.6682439798
 H          3.7190866988       -3.7399005603       -1.5235749422
 H          3.2636132711       -0.0955823322       -3.7039742446
 C          2.7378375922        1.5088391722       -1.6501941032
 O          2.6224784771        2.2625707366       -0.7124631224
 H          2.6612817418        1.8844336198       -2.6839652199
