  56
        -94.15141671
 C         -0.3609436075       -3.0136057052       -1.7199689832
 C         -0.8750882800       -3.0704974424       -3.1485351021
 C         -1.5091904139       -2.7837055591       -0.7211666994
 O         -2.6457157900       -2.4976509212       -1.0674738829
 O          1.6547476025       -2.7798408994        0.2293007411
 O          4.2140788785        0.4717199062        0.5243744493
 N          0.5982524887       -1.9325642255       -1.5760443562
 C          1.5000907549       -1.8823127245       -0.5882093678
 C          2.2862833036       -0.5794741430       -0.5456949369
 C          3.6321805651       -0.7601257013        0.1824893896
 N          2.3949616954        0.0049287370       -1.8749192832
 N         -1.1234485978       -2.9178082212        0.5543794710
 C         -1.9571009965       -2.5395513908        1.6864582148
 C         -1.3360599874       -3.0529816232        2.9730545693
 C         -2.0468323899       -1.0048079283        1.6768026123
 O         -1.3403936852       -0.2781145003        2.3456530627
 N         -2.9821625013       -0.5355088514        0.8193430514
 O         -0.8481830568        0.5050624545       -0.6215990041
 O         -1.2678912565        2.5126004797        0.2978040246
 C         -2.9611929519        0.8749198745        0.4997474091
 C         -1.5676694071        1.2417841291       -0.0046543305
 C         -3.9930378297        1.1909822111       -0.5764905392
 H          0.1551851077       -3.9425365488       -1.4477184599
 H         -0.0483594959       -3.1866024461       -3.8440025753
 H         -1.4162678262       -2.1563350147       -3.3793401501
 H         -1.5584498771       -3.9074043735       -3.2606855687
 H          3.7043649105        0.8524570425        1.2580296619
 H          0.4445875340       -1.0766007459       -2.0916601302
 H          1.6600371472        0.0989996077        0.0498298416
 H          4.3410634202       -1.2613867015       -0.4846314160
 H          3.4768601371       -1.3922669432        1.0635219368
 H          3.0031626693       -0.5733123502       -2.4487259446
 H          2.8394169009        0.9145954634       -1.7946000603
 H         -0.1324784698       -3.0620119741        0.7438413272
 H         -2.9592078374       -2.9558334507        1.5284414326
 H         -1.9871766486       -2.8296009606        3.8136876116
 H         -0.3816207533       -2.5582611822        3.1367035524
 H         -1.1806775844       -4.1270065095        2.9162330315
 H         -3.2900235623       -1.1730782958        0.0841029111
 H         -3.1551621690        1.4530645459        1.4105445510
 H         -3.7707272181        0.6249426475       -1.4787076685
 H         -3.9838425811        2.2528826640       -0.8078528054
 H         -4.9832648328        0.9152941448       -0.2237178500
 C         -0.0453350314        3.0143608601       -0.1436588302
 C          1.1435324366        2.7275254232        0.5359125830
 C         -0.0366537411        3.8171629909       -1.2723906927
 C          2.3356771786        3.2700440000        0.0480690339
 C          2.3435262775        4.0722111095       -1.0747334040
 C          1.1554611603        4.3490597670       -1.7336009747
 H         -0.9670888966        4.0165615611       -1.7816551151
 H          3.2734444901        4.4809994246       -1.4389019825
 H          1.1545389857        4.9743360301       -2.6133401914
 H          3.2521897569        3.0424191812        0.5716870923
 C          1.1716066813        1.8830986427        1.7430304235
 O          2.1947007249        1.5221904795        2.2773873795
 H          0.1897978609        1.5859574312        2.1421241726
