  56
        -94.15141418
 C          0.0201544544       -3.0897858178       -1.6291250333
 C         -0.1364705962       -3.2112896751       -3.1354871195
 C         -1.3307590708       -2.8079715357       -0.9474865195
 O         -2.3458157953       -2.5328299401       -1.5700616218
 O          1.5110596317       -2.7747716934        0.7360472139
 O          3.9752402177        0.4722194004        1.4983756872
 N          0.9343418569       -2.0083314994       -1.3066693818
 C          1.5735368613       -1.9165755205       -0.1342009769
 C          2.3496287403       -0.6183001947        0.0371906284
 C          3.4762358544       -0.7713814118        1.0771986029
 N          2.7862521962       -0.1008198448       -1.2519797861
 N         -1.2654866534       -2.8845328837        0.3879195096
 C         -2.3423713269       -2.4546777009        1.2683753887
 C         -2.0570231974       -2.9138953926        2.6869548613
 C         -2.4075762281       -0.9214928886        1.1745562028
 O         -1.8786587949       -0.1684568728        1.9667920793
 N         -3.0974880850       -0.4872993379        0.0949100351
 O         -0.6601539379        0.4834467354       -0.8132128308
 O         -1.2704779036        2.5337103777       -0.1229137840
 C         -2.9803013741        0.9076868051       -0.2681983977
 C         -1.5009870084        1.2493372082       -0.4292007306
 C         -3.7117741340        1.1789177910       -1.5775125170
 H          0.4405037340       -4.0075845263       -1.1996927514
 H          0.8311712813       -3.3643069550       -3.6054888736
 H         -0.5913743010       -2.3063370350       -3.5304341756
 H         -0.7863916163       -4.0490658548       -3.3715030726
 H          3.3079377507        0.8860929864        2.0697404024
 H          0.9256600942       -1.1778044282       -1.8830400676
 H          1.6103898570        0.0926321606        0.4310887651
 H          4.3185403392       -1.3042055806        0.6238819123
 H          3.1029248185       -1.3633872550        1.9198968079
 H          3.5048796280       -0.7100235154       -1.6340759105
 H          3.2138856332        0.8091715636       -1.1088108772
 H         -0.3515490168       -3.0239811646        0.8169184714
 H         -3.2822288681       -2.8744669432        0.8902456867
 H         -1.9065345581       -3.9897991719        2.7136734493
 H         -2.8888600380       -2.6526883135        3.3352987289
 H         -1.1639803140       -2.4151043243        3.0559775078
 H         -3.2255667769       -1.1556628356       -0.6659110315
 H         -3.3846410145        1.5257236405        0.5417711010
 H         -3.2823085626        0.5732037272       -2.3728134645
 H         -3.6318490502        2.2296091250       -1.8437787199
 H         -4.7618857754        0.9215633081       -1.4678682260
 C          0.0285583748        3.0147484163       -0.2710205601
 C          1.0161289441        2.7437662242        0.6823242488
 C          0.3175129621        3.7818357549       -1.3876678155
 C          2.2975246983        3.2632958920        0.4780477166
 C          2.5844491165        4.0290971125       -0.6334266116
 C          1.5920777593        4.2923453459       -1.5651967511
 H         -0.4615091924        3.9702920341       -2.1104556518
 H          3.5798963940        4.4203846250       -0.7763583058
 H          1.8097121695        4.8898378048       -2.4373105170
 H          3.0590314900        3.0473911822        1.2125437737
 C          0.7429282739        1.9423115484        1.8881642052
 O          1.6033169683        1.5959001464        2.6642197611
 H         -0.3097903813        1.6649145568        2.0505690787
