  56
        -94.15140342
 C         -1.2594796532       -0.9358481149       -1.5463386807
 C         -0.1845504907       -1.9079958058       -2.0198808270
 C         -0.6862339368        0.4793580476       -1.3801125935
 O          0.3981180618        0.8067093980       -1.8341030723
 O         -3.8273545925       -2.0010398117       -1.0581082084
 O         -3.6631638375        0.6639451731        1.1500871486
 N         -1.8173787634       -1.3342970892       -0.2714809341
 C         -3.0926028128       -1.7493098690       -0.1241922070
 C         -3.5816487355       -1.7957318207        1.3276941976
 C         -4.3725238149       -0.4833750498        1.5358598684
 N         -4.4678458020       -2.9115974304        1.6002246346
 N         -1.4918840220        1.3043386954       -0.6889402388
 C         -1.0248070145        2.5145022093       -0.0321839087
 C         -2.1627939845        3.5105413692        0.1174380687
 C         -0.5127845699        1.9991366000        1.3220436220
 O         -1.2654405374        1.5220614227        2.1573084655
 N          0.8221488487        2.0123273460        1.4749647695
 O          0.8960077275       -0.9551705619        1.2285202714
 O          2.8539268814        0.0653667477        0.7896825960
 C          1.4702466717        1.0848850373        2.3933012416
 C          1.7107618158       -0.0966437185        1.4533435221
 C          2.7256741087        1.6838890546        2.9980190986
 H         -2.0925015951       -0.9129309855       -2.2597696953
 H         -0.6282871369       -2.8740754822       -2.2430187072
 H          0.5640452434       -2.0299213715       -1.2405999186
 H          0.3007228018       -1.5161402153       -2.9089557336
 H         -2.9312295182        0.8446970702        1.7730418817
 H         -1.2045137636       -1.2472847001        0.5276887052
 H         -2.7344459476       -1.8333645655        2.0207547701
 H         -4.6959005536       -0.4255525142        2.5810365594
 H         -5.2593694534       -0.5167471351        0.8965689626
 H         -3.9542173393       -3.7851954059        1.5406121830
 H         -5.1822716851       -2.9369469044        0.8768494658
 H         -2.3665927035        0.9418945077       -0.3090592221
 H         -0.1996227627        2.9260591662       -0.6208896202
 H         -2.5391323608        3.7943030506       -0.8614845492
 H         -1.8125370469        4.3994374478        0.6351912937
 H         -2.9702048794        3.0599267916        0.6890118503
 H          1.4198100715        2.3330049383        0.7146704528
 H          0.7339548805        0.8036970689        3.1524782443
 H          2.4621005435        2.5503414587        3.5984714178
 H          3.4080654988        1.9929784541        2.2110673379
 H          3.2216894507        0.9535392448        3.6314856390
 C          3.0694612960       -0.6377999049       -0.3864584616
 C          3.0473431919        0.0748064922       -1.5934996984
 C          3.3095569288       -2.0005321806       -0.3642056278
 C          3.2912921064       -0.6258493165       -2.7738185273
 C          3.5455255974       -1.9833439314       -2.7547749292
 C          3.5510347484       -2.6714498658       -1.5515319737
 H          3.3008170945       -2.5250759519        0.5790977857
 H          3.7306760060       -2.5112302579       -3.6776187195
 H          3.7375443924       -3.7342557001       -1.5344741666
 H          3.2689768151       -0.0888973515       -3.7101484520
 C          2.7355801465        1.5103395577       -1.6552544610
 O          2.6194770866        2.2644087722       -0.7177366062
 H          2.6533199934        1.8850507894       -2.6889518162
