  56
        -94.15138559
 C         -0.8240296057       -0.2042156102       -2.7141839220
 C         -0.0243683407       -1.1787661469       -3.5608119086
 C          0.0741577713        0.8790122023       -2.0889158460
 O          1.2883717109        0.7968808015       -2.0815919662
 O         -3.1486733128        0.5713608830       -1.3106852922
 O         -5.2987158021       -1.1230378324       -0.5538906492
 N         -1.4632505816       -0.9033475836       -1.6135508683
 C         -2.5214635081       -0.4239311456       -0.9543420366
 C         -2.9892895475       -1.2768041918        0.2130081462
 C         -4.2550169481       -2.0110356126       -0.2749905212
 N         -1.9483136957       -2.2102575275        0.6113989756
 N         -0.6269742008        1.8933547004       -1.5437853885
 C         -0.0694240476        2.6628268380       -0.4522677825
 C         -0.8393667190        3.9650930617       -0.2727326634
 C         -0.1449686791        1.7913330082        0.8050105074
 O         -0.7316770243        0.7204050990        0.8087344692
 N          0.4498220488        2.2632556639        1.9137336393
 O          0.0932856493       -1.0256674244        2.9322598378
 O          1.7372226803       -0.0462488680        1.7076730388
 C          0.5055872050        1.3736291142        3.0660757447
 C          0.7013249019       -0.0622892595        2.5540660136
 C          1.6519420759        1.7660634403        3.9865527374
 H         -1.6154520255        0.2790937960       -3.2994222723
 H          0.7854889894       -1.5988703565       -2.9681975245
 H          0.4087534055       -0.6573305121       -4.4095850294
 H         -0.6640707984       -1.9799826323       -3.9210677007
 H         -4.9176492202       -0.3377981156       -0.9810485027
 H         -0.9827495820       -1.6779428257       -1.1728452786
 H         -3.2954455641       -0.5865258393        1.0159563499
 H         -4.6164368604       -2.6884009816        0.5053605122
 H         -3.9963256544       -2.6114439748       -1.1622169550
 H         -2.3320986494       -2.8984325455        1.2514853786
 H         -1.2399936915       -1.6955325715        1.1284540966
 H         -1.6388077117        1.7767720076       -1.5118002385
 H          0.9883053792        2.8495885114       -0.6712783675
 H         -0.7816475493        4.5545119123       -1.1841035050
 H         -0.4273147997        4.5440978387        0.5487946579
 H         -1.8850085209        3.7502607730       -0.0624228681
 H          1.1714132621        2.9621405275        1.8268437523
 H         -0.4557251926        1.4056065367        3.5939266288
 H          1.4980344274        2.7740348189        4.3649326631
 H          2.5909787642        1.7267003423        3.4389300551
 H          1.7040900443        1.0817004257        4.8293552313
 C          2.0466000707       -1.0194234256        0.7931077302
 C          2.8038585778       -0.5819695572       -0.3094802526
 C          1.6631085914       -2.3482378634        0.9021585587
 C          3.1655326463       -1.5139304721       -1.2794510827
 C          2.7785606751       -2.8358797181       -1.1744061199
 C          2.0243728772       -3.2474885760       -0.0868006126
 H          1.0798701681       -2.6728587276        1.7478515670
 H          3.0586346770       -3.5452591706       -1.9385578368
 H          1.7133337067       -4.2775677779       -0.0010905900
 H          3.7376861060       -1.1780005963       -2.1309704642
 C          3.1691652575        0.8298723417       -0.5038305939
 O          2.9078513001        1.7547128375        0.2285745861
 H          3.7702990305        0.9881102873       -1.4162872068
