  56
        -94.15132237
 C         -3.1117798089        1.2575088053       -1.1843306316
 C         -3.3865332798        1.6188938070       -2.6343521804
 C         -2.2511346544        2.3310717402       -0.4941381227
 O         -1.7047353302        3.2376966046       -1.1062258347
 O         -3.0179262413       -0.4947216779        1.0125958812
 O         -0.8870626282       -4.0205708864        1.1072144215
 N         -2.4177950564       -0.0156193520       -1.1078074401
 C         -2.4011401601       -0.7756874766       -0.0062578197
 C         -1.5051441300       -2.0007378298       -0.1251503640
 C         -1.9176342991       -3.0938671990        0.8798480273
 N         -1.4250219362       -2.4459965691       -1.5099950635
 N         -2.1625195441        2.1560127835        0.8295147294
 C         -1.2721886026        2.9262828913        1.6857056708
 C         -1.6307866103        2.6862545713        3.1413882768
 C          0.1634063354        2.4697563388        1.3788049488
 O          0.7860129121        1.6775584387        2.0566059589
 N          0.6652230245        3.0276881731        0.2544170120
 O          0.6305777396        0.4417779633       -0.7692429113
 O          2.8410933660        0.3130184176       -0.3718329838
 C          1.8757253408        2.4661743387       -0.3017436269
 C          1.6763007948        0.9647137338       -0.4970330737
 C          2.1954273927        3.1167217531       -1.6425192286
 H         -4.0469253610        1.1505391566       -0.6204572512
 H         -3.9551578766        0.8303414163       -3.1197269627
 H         -2.4466552023        1.7640641875       -3.1611051467
 H         -3.9486932573        2.5471812908       -2.6818677146
 H         -0.2159017090       -3.5847349882        1.6575276589
 H         -1.7680116654       -0.2641115625       -1.8408125099
 H         -0.5050196783       -1.6386145023        0.1484255983
 H         -2.7610230216       -3.6616550044        0.4728958402
 H         -2.2381352271       -2.6134802996        1.8107430046
 H         -2.3194081214       -2.8390807004       -1.7914393774
 H         -0.7394990550       -3.1922438236       -1.5730229183
 H         -2.5642197578        1.3080238903        1.2290766870
 H         -1.3708941334        3.9847683240        1.4157316894
 H         -2.6757878575        2.9257544009        3.3188426105
 H         -1.0079263684        3.3036765683        3.7826977986
 H         -1.4519703741        1.6430937489        3.3908953675
 H         -0.0048568225        3.4381952457       -0.3974373127
 H          2.6993826888        2.6071882129        0.4079513216
 H          1.3772644917        2.9478471277       -2.3395345221
 H          3.1101380855        2.7000572692       -2.0559017803
 H          2.3252286565        4.1870331138       -1.5061084916
 C          2.8573017857       -1.0626951659       -0.5813807852
 C          2.2749198657       -1.9529149185        0.3275253641
 C          3.4861148707       -1.5322351976       -1.7236429062
 C          2.3332784480       -3.3210528450        0.0467485504
 C          2.9588978901       -3.7879870234       -1.0907830618
 C          3.5427798433       -2.8924407180       -1.9737682262
 H          3.9255745292       -0.8227809289       -2.4078951627
 H          2.9938495152       -4.8477591587       -1.2905664969
 H          4.0369669375       -3.2502148994       -2.8641302689
 H          1.8768741764       -4.0053196226        0.7462072479
 C          1.6327018727       -1.5008714402        1.5744016436
 O          1.0059334758       -2.2373932747        2.3005804977
 H          1.7591274614       -0.4364718707        1.8232753502
