  56
        -94.15122888
 C          2.1015682351        0.4187698264        1.1153419831
 C          3.4934547100        0.7403703009        1.6665894247
 C          2.1596005026       -0.8830903050        0.3180687701
 O          2.5357587620       -0.8875477179       -0.8465396146
 O          0.1172432920        2.4213610609        1.5379380400
 O         -0.1556153568        5.0595838782        0.7694145164
 N          1.6504508742        1.4389364140        0.1986811656
 C          0.6615641482        2.2987384797        0.4479904353
 C          0.2772227370        3.1915645072       -0.7287186667
 C          0.6226996235        4.6360596404       -0.3110868269
 N          0.9824962062        2.7976514169       -1.9348498953
 N          1.7859576729       -1.9927529737        0.9680919975
 C          1.7115917511       -3.2924993958        0.3095996494
 C          1.7059818745       -4.3991871926        1.3486091924
 C          0.4190738370       -3.3118710412       -0.5352761749
 O         -0.5881870006       -3.8909651074       -0.1918992331
 N          0.5261913428       -2.5863837136       -1.6688575934
 O         -0.6969938497        0.2048310480       -2.2897976830
 O         -1.8834423774       -1.0543679973       -0.8487354218
 C         -0.6353662028       -2.2179354294       -2.4602483787
 C         -1.0857121228       -0.8652595039       -1.9024088611
 C         -0.2759535293       -2.1241712968       -3.9335193190
 H          1.3751345567        0.3578156456        1.9322475086
 H          3.8098121098       -0.0334307405        2.3611073662
 H          3.4682667057        1.6941796092        2.1864948336
 H          4.2087963958        0.7992656636        0.8494296900
 H         -0.1836324565        4.3259084078        1.4100512046
 H          2.0437933625        1.4335152072       -0.7361317642
 H         -0.8223040716        3.1382170715       -0.8198925836
 H          0.4163651035        5.3225168779       -1.1386385944
 H          1.6974571338        4.6904281602       -0.0764822986
 H          0.8967001741        3.5207173128       -2.6410019409
 H          0.5579810909        1.9540811952       -2.3112293338
 H          1.3679645178       -1.9263136365        1.8875960718
 H          2.5763948647       -3.3736679785       -0.3586675525
 H          2.5851491032       -4.3286305538        1.9836290420
 H          1.6994481655       -5.3665849010        0.8546884993
 H          0.8098487699       -4.3241397605        1.9599657339
 H          1.3651936857       -2.0235814196       -1.8012792234
 H         -1.4111731386       -2.9645201260       -2.2627239663
 H          0.4504511445       -1.3288991129       -4.0834926803
 H         -1.1617607190       -1.9022164149       -4.5221714276
 H          0.1483292309       -3.0652317490       -4.2714420231
 C         -2.2395042650        0.0207168284       -0.0362339242
 C         -1.9129275481       -0.0611189748        1.3245911850
 C         -2.8661423825        1.1421612180       -0.5456593204
 C         -2.2136882404        1.0159160967        2.1552293385
 C         -2.8538535502        2.1314698494        1.6504272196
 C         -3.1798074058        2.1922014882        0.3059225966
 H         -3.0966226903        1.1956672632       -1.5987175369
 H         -3.0780301896        2.9636285472        2.2982962709
 H         -3.6688900832        3.0684178856       -0.0923010407
 H         -1.9330320752        0.9555854561        3.1948532428
 C         -1.2212092543       -1.2484392222        1.8333807831
 O         -0.4553462657       -1.2554321543        2.7702171232
 H         -1.4262326491       -2.1704146392        1.2625719855
