  56
        -94.15122868
 C          2.0969334849        0.4253466235        1.1072196974
 C          3.4880368214        0.7511736218        1.6581585272
 C          2.1615627024       -0.8694058967        0.2990528536
 O          2.5286564178       -0.8609237610       -0.8683972536
 O          0.1104083932        2.4205675013        1.5556418769
 O         -0.1703219208        5.0635593185        0.8034685959
 N          1.6369832509        1.4500452841        0.2001485348
 C          0.6473528965        2.3054418647        0.4612268030
 C          0.2523210827        3.2037183292       -0.7077810187
 C          0.5995528980        4.6464956025       -0.2855608715
 N          0.9484411717        2.8169855639       -1.9214582252
 N          1.8046827746       -1.9879990274        0.9432478314
 C          1.7380725703       -3.2829262953        0.2744783243
 C          1.7511178543       -4.3982460876        1.3041278585
 C          0.4393320946       -3.3074646648       -0.5606352804
 O         -0.5607964604       -3.8961519486       -0.2127890172
 N          0.5320738941       -2.5747035104       -1.6908580489
 O         -0.7132742493        0.2109475273       -2.2859939849
 O         -1.8827005404       -1.0634321098       -0.8443792181
 C         -0.6386127030       -2.2104221479       -2.4707043352
 C         -1.0932102153       -0.8635995029       -1.9023648948
 C         -0.2924916210       -2.1071669621       -3.9465194083
 H          1.3731849393        0.3527271533        1.9255738660
 H          3.4576889132        1.7003407472        2.1862135505
 H          4.2012453567        0.8217326226        0.8400688445
 H          3.8108421185       -0.0264052155        2.3454456062
 H         -0.1927249898        4.3265054096        1.4403982955
 H          2.0234759240        1.4507330424       -0.7375887019
 H         -0.8478969677        3.1494973027       -0.7902284387
 H          0.3856758848        5.3369800556       -1.1078275329
 H          1.6761459737        4.7008784102       -0.0595297658
 H          0.8549290924        3.5428223390       -2.6237590100
 H          0.5237872876        1.9735880824       -2.2980856207
 H          1.3924103014       -1.9329872164        1.8660697584
 H          2.5985767687       -3.3499731308       -0.4008442469
 H          0.8580649379       -4.3381478512        1.9216087870
 H          2.6334592218       -4.3232978123        1.9342247384
 H          1.7521408801       -5.3615086861        0.8021447218
 H          1.3650593865       -2.0036048726       -1.8256288706
 H         -1.4075854494       -2.9632605002       -2.2702397867
 H          0.4273482104       -1.3063974793       -4.0988359127
 H         -1.1848082731       -1.8882589457       -4.5264226222
 H          0.1349953301       -3.0437876902       -4.2926444760
 C         -2.2386583924        0.0047919648       -0.0228873225
 C         -1.9028800421       -0.0841293706        1.3352710168
 C         -2.8738421094        1.1264437421       -0.5210977468
 C         -2.2034179354        0.9861447310        2.1746986225
 C         -2.8521506344        2.1018069256        1.6811729087
 C         -3.1870025690        2.1695277177        0.3392005158
 H         -3.1114034730        1.1855603243       -1.5722721388
 H         -3.0759933158        2.9287222402        2.3358169200
 H         -3.6828966257        3.0458570602       -0.0502752591
 H         -1.9158988604        0.9205844350        3.2121308253
 C         -1.2024388336       -1.2713789671        1.8322123235
 O         -0.4309756016       -1.2804550003        2.7644553440
 H         -1.4063415257       -2.1907399986        1.2568303087
