  56
        -94.15122727
 C          2.2643594115        0.5153934779       -0.6388575473
 C          3.6500142417        0.8332509095       -1.2079294356
 C          1.9806429553       -0.9771854142       -0.7980739873
 O          1.5521787108       -1.4235258716       -1.8540381846
 O          0.7373662168        2.7796541150        0.1844296459
 O         -0.2675397536        5.0008645038       -1.1148102574
 N          1.2255734315        1.2071214134       -1.3645757839
 C          0.5044996947        2.2186315327       -0.8787550606
 C         -0.6291098666        2.6897926196       -1.7857777593
 C         -0.2789286592        4.1315701352       -2.2088078370
 N         -0.7765326737        1.8141000210       -2.9341095108
 N          2.2347190240       -1.7456703227        0.2689025912
 C          1.9328676996       -3.1729390172        0.2883867198
 C          2.7100283189       -3.8511455395        1.4021027643
 C          0.4100262484       -3.3217500225        0.4974928250
 O         -0.0863503668       -3.6181318656        1.5621994263
 N         -0.2987686444       -3.0494848380       -0.6189591728
 O         -1.9837503701       -0.5143013107       -1.2599044441
 O         -1.8555265103       -1.0430025847        0.9249530132
 C         -1.7355520816       -2.8352559095       -0.5858806773
 C         -1.9108775168       -1.3286582577       -0.3780666046
 C         -2.3797359440       -3.2995009173       -1.8812794319
 H          2.2054215689        0.8263414615        0.4092621666
 H          3.7015748255        0.5215439651       -2.2486387137
 H          4.4166861027        0.3109180201       -0.6417175651
 H          3.8321685190        1.9027609039       -1.1476891208
 H          0.1943831655        4.5446120279       -0.3882544253
 H          0.9555608669        0.8287433483       -2.2661222680
 H         -1.5337249815        2.7510515420       -1.1548217447
 H         -1.0342044392        4.5090745902       -2.9057539766
 H          0.6942465474        4.1236984127       -2.7245442492
 H         -1.3659038910        2.2521027322       -3.6337956209
 H         -1.2361212033        0.9547901051       -2.6445335163
 H          2.4697250554       -1.3198419393        1.1565861843
 H          2.2004601084       -3.5800255246       -0.6932901588
 H          2.3794579027       -3.4697445619        2.3652755734
 H          3.7754487538       -3.6702801548        1.2865472977
 H          2.5255956688       -4.9213620148        1.3797062119
 H          0.1996823799       -2.6719530156       -1.4234518072
 H         -2.1213722732       -3.3662335583        0.2901852438
 H         -3.4589713323       -3.1880861081       -1.8241523241
 H         -2.1395552977       -4.3434808905       -2.0606638426
 H         -2.0107721476       -2.6991272659       -2.7095391161
 C         -1.7661846043        0.2816592184        1.3491444718
 C         -0.6622866762        0.6350939054        2.1376409136
 C         -2.7085586242        1.2263692808        0.9896257906
 C         -0.5187476641        1.9611987649        2.5393495751
 C         -1.4679273220        2.9037618423        2.1932494444
 C         -2.5586701507        2.5361676153        1.4233302434
 H         -3.5443746490        0.9408064587        0.3693632239
 H         -1.3467677514        3.9294479394        2.5026411212
 H         -3.2946971279        3.2741717029        1.1420063891
 H          0.3483804341        2.2296076984        3.1218015661
 C          0.3380090225       -0.3796553026        2.4792688764
 O          1.5117730096       -0.1576172487        2.6725030609
 H         -0.0575295071       -1.4091784602        2.5184309324
