  56
        -94.15122076
 C          2.7458147967       -0.8401335510       -0.1779554246
 C          4.0266705144       -1.6382364427       -0.4197216080
 C          1.5225294814       -1.6157585232       -0.6828268243
 O          0.8502699879       -1.2161234791       -1.6265554239
 O          2.0378290018        1.6994277826        0.8396298994
 O          1.1664232808        1.1941310264       -3.0797435463
 N          2.8138500199        0.4271427563       -0.8675171238
 C          2.3123613753        1.5625382275       -0.3412483619
 C          2.1158238666        2.6849510010       -1.3599443046
 C          0.9187365521        2.3091573191       -2.2712397828
 N          1.8532201040        3.9714628819       -0.7474591271
 N          1.3085331377       -2.7871722701       -0.0790398147
 C          0.2961851856       -3.7336503712       -0.5138787222
 C          0.7249646351       -5.1450649229       -0.1446495666
 C         -1.0735168490       -3.3977948209        0.1158873307
 O         -1.6046925024       -4.1011850855        0.9451187133
 N         -1.6118772202       -2.2764887059       -0.3968541607
 O         -2.8505485445       -0.1654516205        1.9699716498
 O         -1.9776118080        0.4732257308       -0.0014338577
 C         -2.8443767376       -1.7198735586        0.1114358261
 C         -2.5605365935       -0.4079312922        0.8337371810
 C         -3.8457248085       -1.4872141198       -1.0204001853
 H          2.6150115485       -0.6188684524        0.8862174867
 H          4.0163666652       -2.5709248961        0.1365820821
 H          4.8860645234       -1.0525544732       -0.1032165646
 H          4.1310724471       -1.8648485358       -1.4789299913
 H          0.9372287042        0.3723418000       -2.6050974254
 H          2.8867755996        0.3777579407       -1.8761600568
 H          3.0097040819        2.7716682084       -1.9876400954
 H          0.7418215184        3.1587167530       -2.9367641421
 H          0.0287399577        2.1694095419       -1.6454143725
 H          2.6443050715        4.2418618317       -0.1716124046
 H          1.0552101751        3.8868443774       -0.1236070277
 H          1.7423238599       -2.9727973040        0.8114817447
 H          0.2074757324       -3.6220337133       -1.6010513265
 H          0.0122943461       -5.8589220645       -0.5466318629
 H          0.7338395152       -5.2559919201        0.9369427097
 H          1.7123893655       -5.3631536273       -0.5442038300
 H         -1.0515692090       -1.6931766628       -1.0079113599
 H         -3.2394143452       -2.4301033710        0.8458092607
 H         -3.4271648738       -0.8019470809       -1.7537554778
 H         -4.7662602404       -1.0665080327       -0.6241916312
 H         -4.0716518798       -2.4322444219       -1.5071757513
 C         -1.5845100766        1.6881567331        0.5390972030
 C         -0.6184536828        1.7480408672        1.5500064412
 C         -2.1829337680        2.8426244042        0.0582946523
 C         -0.2974648363        2.9955968047        2.0848319768
 C         -0.8891407291        4.1473399848        1.6039297964
 C         -1.8234110741        4.0721516889        0.5810655944
 H         -2.9238298217        2.7627049699       -0.7222227458
 H         -0.6226326420        5.1067156733        2.0205121979
 H         -2.2815598529        4.9704584223        0.1970390657
 H          0.4488189749        3.0457861672        2.8624621090
 C          0.1173593236        0.5610543267        2.0071897392
 O          0.1273701580       -0.5226831918        1.4717230607
 H          0.6951206426        0.7412556911        2.9301596617
