  56
        -94.15111732
 C         -1.3222760216       -2.7349686487       -1.3487941279
 C         -1.6848076358       -2.6810738099       -2.8271954274
 C         -2.3788290740       -2.0261877656       -0.4925163674
 O         -3.3630451083       -1.4731544454       -0.9507528604
 O          1.1425748367       -3.8449498192       -0.4320833376
 O          0.5918958834       -1.5693279351        1.9926083438
 N         -0.0733746804       -2.0501828644       -1.0766697333
 C          1.0101716994       -2.6434146273       -0.5473781178
 C          2.0495021112       -1.6582582621       -0.0043040204
 C          1.9090921690       -1.7359354066        1.5383225779
 N          3.3684865109       -2.0326718861       -0.4738892485
 N         -2.0875355139       -2.0245498376        0.8249802311
 C         -2.7608863680       -1.1086068664        1.7346258598
 C         -2.5161131427       -1.5162144475        3.1760804406
 C         -2.1568929376        0.2565919435        1.3981799447
 O         -1.1039064217        0.6571115789        1.8792741768
 N         -2.8030187688        0.9465260736        0.4464138002
 O         -0.2347400160        0.8103253534       -0.8055290840
 O          0.1144568931        2.7053895000        0.3406546094
 C         -2.1413021354        2.1117685403       -0.1240951381
 C         -0.6561345464        1.7847743910       -0.2307801928
 C         -2.6891188475        2.4154188523       -1.5106954362
 H         -1.1980467051       -3.7725558743       -1.0179289289
 H         -2.6483552534       -3.1562686854       -2.9870757554
 H         -0.9270223288       -3.1919426363       -3.4141028429
 H         -1.7525554036       -1.6459670494       -3.1527959155
 H          0.2992482626       -0.6461508578        1.8922249959
 H         -0.0918330752       -1.0428900935       -1.1651533381
 H          1.8299600343       -0.6382626857       -0.3414329411
 H          2.5846530371       -1.0021507483        2.0019886410
 H          2.2031566455       -2.7413117930        1.8580867701
 H          4.0867294674       -1.6472172713        0.1308398714
 H          3.4443744069       -3.0462150564       -0.4498405500
 H         -1.1722693156       -2.3371886429        1.1354921464
 H         -3.8280460331       -1.1140163616        1.4900836025
 H         -3.0099902294       -0.8192947367        3.8476950274
 H         -1.4490646563       -1.5094671808        3.3825818852
 H         -2.9056826745       -2.5153470942        3.3501602143
 H         -3.4941682682        0.4642023333       -0.1190267371
 H         -2.2576574965        2.9672034024        0.5512250822
 H         -3.7325339313        2.7121611436       -1.4445636265
 H         -2.6055660040        1.5305314301       -2.1379492672
 H         -2.1139105486        3.2170992799       -1.9663317725
 C          1.4790312851        2.4562899259        0.3184798352
 C          2.1928715049        2.4434683961       -0.8871083247
 C          2.1061888693        2.1685981995        1.5196341959
 C          3.5507662468        2.1223642088       -0.8485701998
 C          4.1800465569        1.8464016753        0.3488395780
 C          3.4593849432        1.8769632576        1.5339270579
 H          1.5155770449        2.1637013346        2.4225315721
 H          5.2308728695        1.6012072162        0.3609013063
 H          3.9483389550        1.6590479525        2.4715705819
 H          4.1066704118        2.0953251144       -1.7738538726
 C          1.5551957027        2.7592795703       -2.1737393130
 O          0.4660704391        3.2493622040       -2.3285060484
 H          2.1956963718        2.5104948039       -3.0421151336
