  56
        -94.15107499
 C         -3.7538293847        0.8868249226       -1.7037529711
 C         -4.5137022089        0.3487677878       -2.9041875453
 C         -2.4219037845        1.5277190980       -2.1219172221
 O         -1.9083871529        1.3478588726       -3.2162045049
 O         -3.1593004723        1.1291133991        1.0174019668
 O         -2.0193646205       -2.4895807283       -0.5799372418
 N         -3.4558539814       -0.1977687868       -0.7796946148
 C         -3.1737533973        0.0103375421        0.5152348152
 C         -2.8612451698       -1.2220662172        1.3767901349
 C         -2.7711239494       -2.5509398308        0.6106343992
 N         -1.6481019811       -1.0180690277        2.1561387196
 N         -1.8679801058        2.2609230117       -1.1463299428
 C         -0.5243388675        2.8074894286       -1.2409098893
 C         -0.3142689224        3.8557222168       -0.1625243763
 C          0.4585319475        1.6406880713       -1.0829974980
 O          1.0618347852        1.3909898150       -0.0517743288
 N          0.5811765324        0.8687466680       -2.1697348260
 O          0.4511286633       -1.2586120986       -0.0663636834
 O          2.6599143870       -0.8066561588       -0.1428589370
 C          1.3956410621       -0.3306085203       -2.0866542558
 C          1.4188653953       -0.7942396962       -0.6257795045
 C          0.8116461329       -1.4275236906       -2.9689008071
 H         -4.3480997067        1.6284591959       -1.1572000305
 H         -3.8804525712       -0.3342000853       -3.4655289794
 H         -4.7936896301        1.1684802462       -3.5596903476
 H         -5.4108286955       -0.1722923899       -2.5809306056
 H         -1.1330148447       -2.1519996639       -0.3621722870
 H         -3.2213786277       -1.0975225262       -1.1851314564
 H         -3.6865830299       -1.3076367553        2.0986130016
 H         -3.7711868724       -2.8833240398        0.3178155896
 H         -2.3425592088       -3.2915945046        1.2967755544
 H         -1.7067543443       -0.1265204429        2.6381307563
 H         -0.8352879576       -0.9764647452        1.5464819875
 H         -2.2920273613        2.2198896089       -0.2176746868
 H         -0.4044988224        3.2331286678       -2.2446105104
 H         -0.3848352811        3.3903368850        0.8177246768
 H         -1.0647907603        4.6371039425       -0.2457201408
 H          0.6737894987        4.2965705785       -0.2607035079
 H         -0.0696164100        0.9836566363       -2.9454143298
 H          2.4266469311       -0.0947400861       -2.3830902183
 H          0.7420975539       -1.0754341073       -3.9949600537
 H         -0.1818360266       -1.7001202977       -2.6193297061
 H          1.4467483592       -2.3092491522       -2.9429793538
 C          2.8708492868       -1.1739494954        1.1815200135
 C          3.5792502476       -0.2929851935        2.0074328000
 C          2.4342229658       -2.3957913671        1.6665972560
 C          3.8463850587       -0.6749742153        3.3217578999
 C          3.4068451277       -1.8898702804        3.8085038359
 C          2.6983105378       -2.7463540619        2.9807254218
 H          1.8892938408       -3.0667140996        1.0212546089
 H          3.6117449419       -2.1713553218        4.8300130016
 H          2.3485530676       -3.6964015399        3.3548165361
 H          4.3972018295        0.0150248736        3.9434424999
 C          4.0168903697        1.0266051447        1.5240195527
 O          4.7074971681        1.7870418067        2.1534054977
 H          3.6457525555        1.2822044671        0.5178440045
