  56
        -94.15106515
 C         -3.7541583025        0.8700301632       -1.7268543193
 C         -4.5097840435        0.3039542288       -2.9169994988
 C         -2.4199145182        1.4993791451       -2.1548234322
 O         -1.9042545473        1.2962797413       -3.2440202519
 O         -3.1722640137        1.1764383482        0.9907580437
 O         -2.0349769127       -2.4858644912       -0.5161816321
 N         -3.4597994568       -0.1923461556       -0.7760397456
 C         -3.1839349701        0.0460786016        0.5149642156
 C         -2.8723670942       -1.1650158429        1.4063562833
 C         -2.7896281426       -2.5130891914        0.6738509519
 N         -1.6554784734       -0.9450325913        2.1753956324
 N         -1.8657724296        2.2492624354       -1.1920695211
 C         -0.5171475471        2.7827818983       -1.2901465272
 C         -0.3027257516        3.8476980823       -0.2291413803
 C          0.4544309455        1.6099990178       -1.1071119011
 O          1.0494110256        1.3721936426       -0.0682706553
 N          0.5760119763        0.8191867123       -2.1800225739
 O          0.4538926385       -1.2789447145       -0.0301289029
 O          2.6591230853       -0.8145768329       -0.1323683212
 C          1.3795565475       -0.3858049202       -2.0760730228
 C          1.4140029636       -0.8186009867       -0.6056556556
 C          0.7772296343       -1.4964899304       -2.9284823855
 H         -4.3499082096        1.6248266586       -1.2003265859
 H         -5.4095809127       -0.2069506290       -2.5851113679
 H         -3.8755858534       -0.3941497590       -3.4583020407
 H         -4.7847898780        1.1077637654       -3.5939615125
 H         -1.1441943409       -2.1566015656       -0.3033369180
 H         -3.2253084463       -1.1021135555       -1.1585758093
 H         -3.6949967752       -1.2292985006        2.1334487048
 H         -3.7913970248       -2.8457816887        0.3872140012
 H         -2.3673362580       -3.2392740826        1.3789563090
 H         -1.7082195487       -0.0406889459        2.6335674894
 H         -0.8439169339       -0.9248444595        1.5630101184
 H         -2.2948427393        2.2306604168       -0.2649265109
 H         -0.3887860466        3.1897775245       -2.3004770309
 H          0.6893013133        4.2787550995       -0.3307572265
 H         -0.3811307603        3.3999572433        0.7587067746
 H         -1.0464520523        4.6336162054       -0.3289336590
 H         -0.0688942213        0.9279891607       -2.9614910314
 H          2.4098807738       -0.1665136074       -2.3874057776
 H          0.7003207688       -1.1660643204       -3.9612001586
 H         -0.2149175481       -1.7529164383       -2.5632983111
 H          1.4049177906       -2.3830260808       -2.8896853879
 C          2.8843983091       -1.1651036485        1.1941117294
 C          3.5861872651       -0.2669414775        2.0069110057
 C          2.4705658419       -2.3895543861        1.6924140153
 C          3.8714305069       -0.6349560879        3.3214431881
 C          3.4558002199       -1.8530492563        3.8209947320
 C          2.7525045777       -2.7263699691        3.0063908130
 H          1.9299292529       -3.0732030215        1.0568103447
 H          3.6747579180       -2.1238227546        4.8424883211
 H          2.4211301893       -3.6789213109        3.3907680689
 H          4.4168275791        0.0682373891        3.9330420539
 C          3.9981762924        1.0558671165        1.5097963415
 O          4.6855248000        1.8302637697        2.1255820459
 H          3.6101054758        1.2997404081        0.5071290786
