  56
        -94.15101974
 C         -0.0852703815       -1.7167342270        2.5323494592
 C         -0.1253119808       -2.8383352005        3.5599760383
 C         -0.8155504335       -2.1564886853        1.2538737743
 O         -0.3290547892       -2.9749692075        0.4944886881
 O          0.6637658705       -0.1005761290        0.4616094327
 O          2.5110016855       -1.6811319831       -1.4224583488
 N          1.2896823766       -1.4162175128        2.1682334440
 C          1.5484517890       -0.6559743914        1.0923710710
 C          3.0202615673       -0.5452305045        0.7161986221
 C          3.3437187623       -1.6733106892       -0.3023033025
 N          3.2826441286        0.7910098395        0.2207560313
 N         -2.0292754120       -1.6143793037        1.0791871923
 C         -2.8343316216       -1.8979902720       -0.0951156270
 C         -4.3110266432       -1.7661201024        0.2439031677
 C         -2.4567116229       -0.9549610647       -1.2585058792
 O         -3.2367306546       -0.1573624846       -1.7369181626
 N         -1.1982344576       -1.1286232959       -1.7012338705
 O          1.4440381852        0.8168496401       -2.2191946526
 O         -0.5104919567        1.6404884855       -1.4697669031
 C         -0.6389472281       -0.3137761110       -2.7611730614
 C          0.2417063946        0.7662561045       -2.1335764380
 C          0.1409790023       -1.1749088352       -3.7443381767
 H         -0.5481867085       -0.8056634658        2.9290923686
 H         -1.1522434584       -3.0279322152        3.8606202784
 H          0.4511004500       -2.5663729738        4.4416046036
 H          0.2833602493       -3.7492193577        3.1268571362
 H          2.3790993158       -0.7696260767       -1.7360262747
 H          2.0211126384       -1.9630142709        2.5925885839
 H          3.6450149230       -0.7077234836        1.6043660264
 H          3.2253952853       -2.6512343482        0.1733416377
 H          4.3990731300       -1.5579362098       -0.6057879261
 H          2.5641695523        1.0572295349       -0.4471565125
 H          4.1789666036        0.8229258008       -0.2541482120
 H         -2.3181920453       -0.8407590955        1.6622290010
 H         -2.5908740194       -2.9221767940       -0.4035718106
 H         -4.9102204576       -2.0121819472       -0.6276838177
 H         -4.5358791258       -0.7409030404        0.5283601408
 H         -4.5736879305       -2.4334771257        1.0606032319
 H         -0.5710362566       -1.7643701268       -1.2219129334
 H         -1.4908372318        0.1878130845       -3.2393259045
 H         -0.5319914130       -1.8716349712       -4.2361652811
 H          0.9085255284       -1.7364125637       -3.2173775843
 H          0.6164652093       -0.5497889640       -4.4950292877
 C          0.0757764637        2.5244882498       -0.5779833832
 C         -0.3695574316        2.4837649649        0.7510108716
 C          1.0810478415        3.3971211125       -0.9556008013
 C          0.2266178209        3.3220341608        1.6891026749
 C          1.2272231212        4.1963335042        1.3114284271
 C          1.6488073360        4.2346416388       -0.0077087347
 H          1.4221077442        3.4147119033       -1.9790964411
 H          1.6846772187        4.8441762924        2.0433348910
 H          2.4332354659        4.9137886921       -0.3050306846
 H         -0.1159486451        3.2688375443        2.7116637271
 C         -1.4072543190        1.5223672844        1.1235448403
 O         -1.6609727844        1.1560505375        2.2491599297
 H         -1.9760548049        1.1385615075        0.2620489412
