  56
        -94.15097667
 C          2.1240531737       -2.0300669357       -0.0633713019
 C          3.0123531149       -3.1999964899       -0.4640223503
 C          0.6833828183       -2.3041247734       -0.5115480196
 O          0.3405249861       -2.1934560299       -1.6782178333
 O          0.7287947520        0.3232683365       -0.1042580597
 O          3.6722730400        0.2300183569       -3.1552117493
 N          2.5885763288       -0.8097734065       -0.6977748924
 C          1.7916117392        0.2720602683       -0.7041940780
 C          2.3487905524        1.4580299335       -1.4998197493
 C          2.5223253979        1.0258468953       -2.9710147375
 N          1.5445789378        2.6574418231       -1.4248096117
 N         -0.1326074230       -2.7382897510        0.4593139649
 C         -1.5126508572       -3.1210878715        0.2127316688
 C         -1.9758220621       -4.0899072562        1.2890349841
 C         -2.4321819923       -1.8803400883        0.1637160313
 O         -3.3125270938       -1.6781668926        0.9732756389
 N         -2.1702402581       -1.0802575548       -0.8854041724
 O         -1.4236080559        2.1162197736       -1.3183705318
 O         -1.8577303667        1.2560414494        0.7245703277
 C         -2.8638038504        0.1745787652       -1.0923774934
 C         -1.9623489038        1.3135974721       -0.6072773895
 C         -3.2289857247        0.3545328623       -2.5583914126
 H          2.1430744324       -1.8776156046        1.0225842519
 H          4.0453054257       -2.9980360420       -0.1905046061
 H          2.9502692243       -3.3560803449       -1.5391122549
 H          2.6870691491       -4.1061530375        0.0403151798
 H          4.4523102586        0.7887247612       -3.0604596216
 H          3.2817010960       -0.8876280648       -1.4324707207
 H          3.3421937202        1.6958439222       -1.0906517200
 H          2.5537322143        1.9256160612       -3.5946613295
 H          1.6762384269        0.4097513184       -3.2838943032
 H          1.4718939217        2.9582172997       -0.4575727852
 H          0.5930896145        2.4617022800       -1.7278414586
 H          0.1501212770       -2.6418345066        1.4247133280
 H         -1.5393582721       -3.5921895646       -0.7780055526
 H         -1.3248977980       -4.9598214716        1.3240871075
 H         -2.9919419629       -4.4108739204        1.0795670812
 H         -1.9726293291       -3.5954701005        2.2576116831
 H         -1.3641573366       -1.2826143821       -1.4703990425
 H         -3.7519259189        0.1429806931       -0.4488803028
 H         -3.7730225899        1.2846005877       -2.6962548794
 H         -3.8469470239       -0.4744490055       -2.8917954629
 H         -2.3250169408        0.3923699679       -3.1613639747
 C         -0.9156992943        2.0070543356        1.4001995589
 C         -0.0445773868        1.3229625090        2.2623655760
 C         -0.8093618942        3.3783206062        1.2403228189
 C          0.9296122471        2.0414871179        2.9495284823
 C          1.0273519221        3.4119060229        2.7992529542
 C          0.1596916633        4.0756044008        1.9459482197
 H         -1.4703161522        3.8932563374        0.5611042514
 H          1.7827780077        3.9636675621        3.3380417843
 H          0.2396977690        5.1446057520        1.8177821070
 H          1.6021620265        1.4990617181        3.5972561164
 C         -0.1288203859       -0.1370972076        2.3471931882
 O          0.7330222439       -0.8723135620        2.7724527360
 H         -1.0851312909       -0.5390553448        1.9776894584
