  56
        -94.15097206
 C          2.5224104409        0.3753686687        0.5991896022
 C          4.0407942040        0.5387583933        0.7233544960
 C          2.2265207475       -0.9574295647       -0.0890769838
 O          2.1461140845       -1.0358988092       -1.3065549273
 O          0.8723108477        2.4939237930        1.4686958455
 O         -0.3882022038        4.8265223338        0.8935813710
 N          1.9567430069        1.4332782103       -0.2022702361
 C          1.1420298851        2.3711908382        0.2799719778
 C          0.5635483060        3.3115802755       -0.7814395797
 C          0.4724017695        4.7434955123       -0.2021197048
 N          1.3282628457        3.2189267582       -2.0140666250
 N          2.1585682062       -2.0094710828        0.7344297639
 C          1.9568099624       -3.3700439839        0.2665421583
 C          2.4983958636       -4.3501268774        1.2948116874
 C          0.4600710103       -3.6304452334       -0.0020026595
 O         -0.2026453994       -4.4209734678        0.6319507141
 N         -0.0071641395       -2.9089056112       -1.0388474950
 O         -3.3220689159       -1.5162448273       -1.2617947211
 O         -1.3538363928       -0.7666811776       -0.4598273835
 C         -1.3925149666       -2.9420410605       -1.4233412816
 C         -2.1511577960       -1.6728333178       -1.0490930356
 C         -1.5465078783       -3.1849151164       -2.9266904908
 H          2.0539869143        0.4204352813        1.5857430628
 H          4.4553671591       -0.2583382916        1.3344372562
 H          4.2723973346        1.4950880843        1.1854011558
 H          4.4984411920        0.5014109976       -0.2626927867
 H         -0.1053006417        4.1284476092        1.5123299404
 H          2.0432242269        1.3441941412       -1.2084104461
 H         -0.4568976260        2.9615382548       -0.9821951412
 H          0.0791771042        5.4237946597       -0.9654102183
 H          1.4888857478        5.0774164210        0.0689220543
 H          2.2300455071        3.6715569219       -1.8962915087
 H          0.8436536777        3.6968415359       -2.7654095964
 H          1.9697475211       -1.8488134592        1.7125763474
 H          2.4932998553       -3.4620611510       -0.6856560020
 H          1.9151085113       -4.2800540171        2.2095494292
 H          3.5430107088       -4.1404831614        1.5106659123
 H          2.4076003602       -5.3640335859        0.9167051767
 H          0.5999648508       -2.2220738018       -1.4741625433
 H         -1.8563633929       -3.7647679607       -0.8623599532
 H         -1.1330176873       -4.1546464650       -3.1886916971
 H         -1.0191937661       -2.4150686184       -3.4865722575
 H         -2.5991413367       -3.1602743132       -3.1937695011
 C         -1.8871292763        0.4501531717       -0.0756372626
 C         -1.6462639314        0.9188142543        1.2253938324
 C         -2.6390487933        1.2076600830       -0.9622080834
 C         -2.1961039656        2.1443572149        1.6055489666
 C         -2.9449813267        2.8959091815        0.7232995900
 C         -3.1617988628        2.4262687576       -0.5627956816
 H         -2.8143446859        0.8392491870       -1.9607225383
 H         -3.3462756208        3.8481853022        1.0302387919
 H         -3.7404552931        3.0092453743       -1.2631225294
 H         -2.0077125279        2.5082609063        2.6038657431
 C         -0.8041555942        0.2015456535        2.1849485946
 O         -0.0848275741       -0.7391312747        1.9538768324
 H         -0.8609050294        0.6292989448        3.2038419342
