  56
        -94.15090954
 C         -0.4260313465       -3.1404623209       -1.6425731833
 C         -0.9792282117       -3.2783348182       -3.0495783938
 C         -1.5443790271       -2.8932843285       -0.6134703069
 O         -2.6836737249       -2.5800758560       -0.9214718574
 O          1.5821412104       -2.6806212185        0.2771790346
 O          4.1746085365        0.5681033194        0.0644320055
 N          0.4768308374       -2.0023216240       -1.5668647046
 C          1.3675685048       -1.8353168221       -0.5836472934
 C          2.0614329413       -0.4801718245       -0.5534119902
 C          3.5643212944       -0.6481314754       -0.2790564559
 N          1.8525876677        0.2756842072       -1.7753476079
 N         -1.1157883893       -3.0223255125        0.6512822275
 C         -1.8768147952       -2.5351402258        1.7918148536
 C         -1.2115118859       -2.9854390005        3.0800925489
 C         -1.8965321582       -1.0037118665        1.6751693607
 O         -1.0699132092       -0.2721260141        2.1836490576
 N         -2.9132418928       -0.5366637062        0.9163086678
 O         -1.0245746209        0.6326523914       -0.8889392652
 O         -1.1035006920        2.3911504654        0.5021985470
 C         -2.9208746434        0.8750204456        0.5904768523
 C         -1.5755473528        1.2551332367       -0.0185463198
 C         -4.0309106265        1.1784233220       -0.4080763528
 H          0.1385436122       -4.0324707671       -1.3461394249
 H         -1.5914059379       -2.4119986320       -3.2882658701
 H         -1.6045539225       -4.1643499281       -3.1140851690
 H         -0.1683378810       -3.3592600033       -3.7683303317
 H          3.8461661286        0.8478915025        0.9333921161
 H          0.3147754819       -1.2250444500       -2.1898526761
 H          1.6201468013        0.0163408373        0.3346901689
 H          4.0548591661       -0.9895932272       -1.1939396675
 H          3.6968611754       -1.4027686344        0.5043940710
 H          0.9546118423        0.7490018185       -1.7490676264
 H          2.5773746229        0.9821845665       -1.8500924305
 H         -0.1128794771       -3.1462806936        0.8005169688
 H         -2.9018199292       -2.9151344451        1.7120992360
 H         -1.8062661061       -2.6741136905        3.9345135972
 H         -0.2281979763       -2.5274424442        3.1575797606
 H         -1.1067678262       -4.0669129462        3.0920691531
 H         -3.3190782617       -1.1810917132        0.2389029424
 H         -3.0480479163        1.4505654043        1.5147834559
 H         -4.0622955797        2.2421856366       -0.6298684759
 H         -4.9883619190        0.8781864552        0.0091471220
 H         -3.8565557349        0.6260152653       -1.3290934305
 C          0.0612630621        2.9217489722       -0.0537915722
 C          1.3009646155        2.7345899522        0.5667612058
 C         -0.0357133936        3.6441034962       -1.2324299467
 C          2.4316298480        3.3094637659       -0.0193374851
 C          2.3333132984        4.0388254150       -1.1872977745
 C          1.0987676507        4.2041914975       -1.7959156027
 H         -1.0016031537        3.7603104682       -1.7007572233
 H          3.2176106926        4.4715806941       -1.6285119875
 H          1.0147755792        4.7653661370       -2.7138824325
 H          3.3864725377        3.1581747093        0.4607816962
 C          1.4465286127        1.9258969948        1.7913799468
 O          2.5188813149        1.6369245046        2.2705049092
 H          0.5033720023        1.5851778619        2.2452245749
