  56
        -94.15088782
 C         -1.9980367493       -1.7344694482       -2.1748247844
 C         -1.6598279461       -1.2854139358       -3.5854521394
 C         -2.8110265578       -0.6734590759       -1.4216068315
 O         -2.9020100522        0.4880431584       -1.7813439019
 O         -1.6892924531       -3.3581605591        0.0929336489
 O          0.5316798092       -1.1308472956        2.1470966068
 N         -0.7732551085       -1.9430892575       -1.4109841894
 C         -0.7296640825       -2.7061404981       -0.3035361570
 C          0.6391357075       -2.8206363318        0.3622245775
 C          0.5488701832       -2.5078115753        1.8714861343
 N          1.1562702482       -4.1749793956        0.2112470106
 N         -3.3569739272       -1.1492475690       -0.2891976440
 C         -3.8423240310       -0.2567278866        0.7522166162
 C         -4.6589182125       -1.0354151501        1.7678696897
 C         -2.5836546482        0.3560995075        1.3852474620
 O         -2.0466271366       -0.1171546808        2.3722259233
 N         -2.1124755411        1.4263401499        0.7212299508
 O          0.2254945978        0.5623015624       -0.4667769405
 O          1.4514849537        2.0293760417        0.7149019002
 C         -0.8712800284        2.0677142045        1.0869656144
 C          0.3101243391        1.4405349864        0.3490992008
 C         -0.9491478121        3.5673026045        0.8068965764
 H         -2.5467393898       -2.6829634757       -2.1752784126
 H         -1.1749691426       -0.3127616018       -3.5507006833
 H         -2.5710582545       -1.1913650695       -4.1692930449
 H         -0.9997906895       -2.0029105880       -4.0656978897
 H         -0.3824608572       -0.8234717475        2.2784842891
 H         -0.0604175796       -1.2376545899       -1.5365854696
 H          1.3461329488       -2.1276063964       -0.1043754650
 H          1.4492995920       -2.9227202769        2.3376742607
 H         -0.3271005840       -3.0152410673        2.2872520290
 H          1.2228062249       -4.4168788845       -0.7724232985
 H          0.5066513941       -4.8270549896        0.6414968959
 H         -3.1029916744       -2.0918898271        0.0041149759
 H         -4.4370303597        0.5294583277        0.2747806282
 H         -4.0205720143       -1.7567023670        2.2726114428
 H         -5.4731155552       -1.5584761641        1.2739139205
 H         -5.0683475570       -0.3584831387        2.5125125118
 H         -2.4664131242        1.5939482894       -0.2178559976
 H         -0.7106848103        1.8845434154        2.1570361137
 H         -0.0353018565        4.0555821284        1.1322330346
 H         -1.7894431317        3.9968572809        1.3458782013
 H         -1.0899682803        3.7431743851       -0.2576871920
 C          2.6557800530        1.4977746354        0.2563023433
 C          3.4990478127        2.2816190518       -0.5391959501
 C          3.0199458655        0.2148362462        0.6291068054
 C          4.7183700338        1.7398032863       -0.9515947475
 C          5.0805688083        0.4579626273       -0.5904302322
 C          4.2311992862       -0.3027526339        0.2002204064
 H          2.3508466857       -0.3562130152        1.2555423505
 H          6.0235258620        0.0493976246       -0.9202101296
 H          4.5091220504       -1.3049226708        0.4892280160
 H          5.3606496358        2.3560845858       -1.5628004308
 C          3.1269657634        3.6424268752       -0.9474373142
 O          3.7963694920        4.3600759963       -1.6449962091
 H          2.1486183827        3.9776016750       -0.5547743170
