  56
        -94.15361953
 C          2.4581860840       -1.3663965433       -0.2856520053
 C          3.7914418937       -1.9538943587       -0.7486046627
 C          1.3312138123       -2.3497467551       -0.6165523004
 O          0.9625367144       -2.5172373531       -1.7680779290
 O          2.0386777908        1.1878837064        0.8486207637
 O          2.7570669407        3.7503393016        0.1287153658
 N          2.1772670278       -0.1310164197       -0.9782697819
 C          1.9166329295        1.0188767217       -0.3650897725
 C          1.5319670202        2.1793434797       -1.2727234588
 C          2.6623241828        3.2235852583       -1.1628901009
 N          1.3528754615        1.7302646471       -2.6403605200
 N          0.8337890182       -3.0305591991        0.4266903157
 C         -0.2929339478       -3.9420135830        0.2903900990
 C         -0.2602428205       -4.9808491819        1.3987667659
 C         -1.5914823303       -3.1113206432        0.3412653540
 O         -2.3730909295       -3.1506995442        1.2635860306
 N         -1.7512174883       -2.3505126607       -0.7633569289
 O         -0.9815464647        0.3816703611       -1.2678359392
 O         -2.4440802044        0.7683341564        0.3927337518
 C         -2.6956978867       -1.2577651228       -0.7982254424
 C         -1.9172223764        0.0400021108       -0.5927546269
 C         -3.4241172316       -1.2110813602       -2.1394423292
 H          2.4818440530       -1.1376981712        0.7835655475
 H          4.0090722287       -2.8657031708       -0.1985386656
 H          4.5925386013       -1.2385177986       -0.5816146938
 H          3.7377923532       -2.1876237729       -1.8093069348
 H          2.6730500606        3.0027617659        0.7473070456
 H          2.0057955297       -0.1802653189       -1.9750132654
 H          0.6269983875        2.6374983639       -0.8343438950
 H          2.4572156150        4.0638178392       -1.8336265798
 H          3.6091174798        2.7551804751       -1.4740272305
 H          1.2548967960        2.5288021632       -3.2584845985
 H          0.4902619707        1.1951580877       -2.6904245084
 H          0.9936630514       -2.6789368378        1.3590345497
 H         -0.2065854762       -4.4097618985       -0.6965458336
 H         -1.0573832518       -5.7025187509        1.2464753930
 H         -0.4233502646       -4.4974958678        2.3589138961
 H          0.6951429921       -5.4992184657        1.4082044229
 H         -0.9956764705       -2.3121391626       -1.4406342292
 H         -3.3914257672       -1.3964303933        0.0344379066
 H         -4.1569890753       -0.4084179698       -2.1443456377
 H         -3.9328471276       -2.1556187144       -2.3111727212
 H         -2.7079746596       -1.0430449130       -2.9409063630
 C         -1.7637981654        1.9004921179        0.8302885702
 C         -0.6289280888        1.7776475224        1.6407651165
 C         -2.2734223189        3.1484421943        0.5092391199
 C         -0.0317991944        2.9419774458        2.1252399455
 C         -0.5253438713        4.1864562714        1.7888798742
 C         -1.6481193289        4.2896951695        0.9816545097
 H         -3.1530753618        3.2109193475       -0.1131267904
 H         -0.0345084925        5.0760359371        2.1507386325
 H         -2.0387549173        5.2601548255        0.7157752586
 H          0.8475773953        2.8508148005        2.7433377765
 C         -0.0345278441        0.4747729782        1.9783846879
 O         -0.2666354241       -0.5791947807        1.4337000504
 H          0.6574845848        0.5280855264        2.8368676113
