  56
        -94.15088739
 C         -2.5934257977        0.6461609776       -2.1379634719
 C         -2.0719859662        0.5111183781       -3.5577540760
 C         -2.1036033349        1.9401117433       -1.4748869245
 O         -1.1789711942        2.6098229176       -1.9029793731
 O         -3.7468625214       -0.3364684754        0.2239271079
 O         -0.6142945379       -0.9250287617        2.2162051007
 N         -2.1018348405       -0.4564647070       -1.3196813376
 C         -2.6973439486       -0.8308998883       -0.1727031803
 C         -2.0549840798       -2.0144735664        0.5459840693
 C         -1.7833077622       -1.6804044709        2.0287355166
 N         -2.9422325372       -3.1697787598        0.4981794951
 N         -2.7627677987        2.2183917972       -0.3369362433
 C         -2.2327505940        3.1623442625        0.6350592676
 C         -3.2946399273        3.5021903235        1.6653782887
 C         -1.0266946308        2.4569043989        1.2739461868
 O         -1.1131406044        1.8078582983        2.3024587725
 N          0.1100753859        2.5858178867        0.5672251252
 O          0.5820902251        0.0801940000       -0.4929132030
 O          2.5114469099       -0.1146811180        0.6437936249
 C          1.3228150453        1.8942020145        0.9368201059
 C          1.3958054630        0.5195890674        0.2744365074
 C          2.5434147691        2.7363779072        0.5706460569
 H         -3.6882232783        0.6115716659       -2.1065083108
 H         -0.9894275507        0.6131027248       -3.5584302544
 H         -2.4889894825        1.2989172929       -4.1786599001
 H         -2.3456690069       -0.4548670990       -3.9737429274
 H         -0.8322474828        0.0197845588        2.3011703823
 H         -1.1297607690       -0.6966465610       -1.4574076155
 H         -1.1110654939       -2.2841559527        0.0620952933
 H         -1.6433285928       -2.6338505774        2.5498879887
 H         -2.6615450624       -1.1782414136        2.4460458383
 H         -3.1460260005       -3.4152670508       -0.4655389674
 H         -3.8232428695       -2.9287389323        0.9432387269
 H         -3.4187898947        1.5232321356        0.0173557887
 H         -1.8967761284        4.0534244579        0.0939477671
 H         -3.5513176051        2.6101873491        2.2319159397
 H         -4.1848927463        3.8860185454        1.1748454335
 H         -2.9158807434        4.2507465837        2.3557272170
 H          0.0360237250        2.9199270228       -0.3909623431
 H          1.2852144289        1.7229789011        2.0201798201
 H          2.5858808353        2.8869035412       -0.5062175658
 H          3.4516649965        2.2393346583        0.8983635047
 H          2.4774696395        3.7063042383        1.0564550684
 C          2.6876962193       -1.4416792515        0.2553628310
 C          3.7816061885       -1.7872370595       -0.5461215379
 C          1.8010655676       -2.4066718265        0.7028495733
 C          3.9589820598       -3.1297094487       -0.8876548011
 C          3.0719346881       -4.0930783589       -0.4520166365
 C          1.9945099304       -3.7304742379        0.3435499800
 H          0.9766178719       -2.1061139969        1.3322925406
 H          3.2177256634       -5.1263861277       -0.7274438378
 H          1.2986506307       -4.4789698392        0.6909182344
 H          4.8083219051       -3.3829669476       -1.5043987663
 C          4.7297683168       -0.7765760480       -1.0323952828
 O          5.6775241768       -1.0042326229       -1.7392519269
 H          4.5043097160        0.2515280608       -0.6920741837
