  56
        -94.15088470
 C         -2.5798172430        0.6511538316       -2.1353811187
 C         -2.0521287113        0.5208846373       -3.5533342091
 C         -2.0913646453        1.9421290697       -1.4652536094
 O         -1.1657268194        2.6138534893       -1.8879442874
 O         -3.7453006560       -0.3385447785        0.2178910852
 O         -0.6222998434       -0.9431772846        2.2179591556
 N         -2.0946400774       -0.4562750655       -1.3198186364
 C         -2.6956894731       -0.8342792863       -0.1769875363
 C         -2.0604195119       -2.0234413972        0.5388373177
 C         -1.7915557867       -1.6962675656        2.0236824113
 N         -2.9534535355       -3.1741257968        0.4846626640
 N         -2.7546360678        2.2159460502       -0.3286421861
 C         -2.2292292746        3.1571409273        0.6485108011
 C         -3.2944589428        3.4902488819        1.6775506645
 C         -1.0231165175        2.4514500657        1.2869118027
 O         -1.1112633247        1.7935481142        2.3095962218
 N          0.1161460916        2.5914180880        0.5860852652
 O          0.5798840914        0.0895247015       -0.4806428524
 O          2.5150605777       -0.1115870617        0.6445731696
 C          1.3283697953        1.8971224705        0.9524790983
 C          1.3981599792        0.5254316825        0.2838183144
 C          2.5498213495        2.7395974752        0.5903994103
 H         -3.6748466989        0.6187758043       -2.1093068700
 H         -2.4647367980        1.3120196695       -4.1729279639
 H         -2.3257542622       -0.4428602110       -3.9745461363
 H         -0.9693915118        0.6207789621       -3.5486763070
 H         -0.8384808404        0.0020609462        2.3019392355
 H         -1.1228440243       -0.6987597481       -1.4550522595
 H         -1.1163548144       -2.2959856692        0.0567598070
 H         -1.6537542246       -2.6522781092        2.5406234751
 H         -2.6704750757       -1.1953215624        2.4410924902
 H         -3.1554120578       -3.4156894566       -0.4804911229
 H         -3.8346883863       -2.9294345165        0.9273714030
 H         -3.4116547573        1.5190802415        0.0205801320
 H         -1.8939273929        4.0512957837        0.1120629613
 H         -2.9184677915        4.2354445444        2.3730324778
 H         -3.5519109637        2.5949192783        2.2384444341
 H         -4.1836782081        3.8758414777        1.1865192139
 H          0.0430448607        2.9294438536       -0.3708529356
 H          1.2904456199        1.7206243274        2.0350255326
 H          2.5892971245        2.8999034708       -0.4851668592
 H          3.4578265908        2.2372605222        0.9106540438
 H          2.4879035452        3.7051946352        1.0852609998
 C          2.6861824015       -1.4374688720        0.2497476617
 C          3.7719573041       -1.7814026330       -0.5633841323
 C          1.8020931415       -2.4027610077        0.7016766856
 C          3.9447340223       -3.1229439281       -0.9108785285
 C          3.0611199193       -4.0868666133       -0.4695537398
 C          1.9911709499       -3.7256516143        0.3366627809
 H          0.9824475227       -2.1034187712        1.3381145607
 H          3.2034465723       -5.1195060897       -0.7493018975
 H          1.2975740321       -4.4745083185        0.6877797699
 H          4.7877810864       -3.3750143672       -1.5366953189
 C          4.7156024384       -0.7698321818       -1.0566511557
 O          5.6544603360       -0.9956892384       -1.7758063436
 H          4.4952896727        0.2571867592       -0.7096793498
