  56
        -94.15088023
 C          1.5798596727        0.4228610242        1.8863375191
 C          2.5309799031        0.6291135449        3.0674021851
 C          1.7096246755       -1.0107846612        1.3710902586
 O          2.5353891733       -1.2978586552        0.5151050307
 O         -0.0056479715        2.4826370545        0.7503896822
 O         -0.2765789689        4.4146192125       -1.1371842795
 N          1.9166044296        1.2966724558        0.7867994026
 C          1.0659570943        2.1755911963        0.2458986811
 C          1.5538617068        2.7783191726       -1.0722618792
 C          1.1110654793        4.2560780852       -1.1700733966
 N          2.9886165895        2.5874761595       -1.2160060078
 N          0.8818591800       -1.9103998474        1.9172597744
 C          0.8325586131       -3.2946823934        1.4603006470
 C          0.2047145986       -4.1714950960        2.5287689988
 C          0.0086574131       -3.3264822724        0.1541203092
 O         -1.1269979676       -3.7453585133        0.0981906708
 N          0.6770424841       -2.8066919107       -0.8964090671
 O          0.2330175056       -0.0458856235       -2.3332055771
 O         -1.5668561025       -0.9374920296       -1.3108699550
 C          0.0118048685       -2.4605262004       -2.1405812490
 C         -0.4137919993       -0.9955974833       -1.9867744216
 C          0.9491188254       -2.6445335322       -3.3219404558
 H          0.5493020981        0.6432889406        2.1835631711
 H          2.4789502244        1.6606211105        3.4051771877
 H          3.5513137868        0.4063892339        2.7634060345
 H          2.2547443868       -0.0258777950        3.8893502390
 H         -0.5877628881        3.8971496623       -0.3719039742
 H          2.7247030039        1.0410894357        0.2285987009
 H          1.0505482273        2.2034172257       -1.8600493065
 H          1.4565789992        4.6817181990       -2.1186792743
 H          1.5873040595        4.8167871470       -0.3460674912
 H          3.4871660319        3.2432267089       -0.6215491239
 H          3.2724475380        2.7607207459       -2.1731348212
 H          0.1405324245       -1.6106342808        2.5381610034
 H          1.8606070558       -3.6044763086        1.2404697019
 H          0.2032443190       -5.2065678634        2.1995292833
 H         -0.8258021532       -3.8672031358        2.6954868077
 H          0.7603976488       -4.0932689734        3.4595602264
 H          1.5856346135       -2.3788948274       -0.7298063581
 H         -0.8832600560       -3.0870525129       -2.2115015807
 H          0.4237250282       -2.4432920988       -4.2513135660
 H          1.3275310236       -3.6626127737       -3.3405990350
 H          1.7830009087       -1.9517097622       -3.2374057307
 C         -2.0647477450        0.2830840931       -0.8629540477
 C         -2.3327291631        0.4045581850        0.5076094843
 C         -2.2705460932        1.3487073115       -1.7190486012
 C         -2.8037414413        1.6209762475        0.9967646574
 C         -3.0314537730        2.6778073274        0.1382260737
 C         -2.7633667622        2.5422819045       -1.2147047866
 H         -2.0361999676        1.2488738236       -2.7672263087
 H         -3.3975917572        3.6167097256        0.5229073962
 H         -2.9126170940        3.3764367538       -1.8818181344
 H         -2.9850917238        1.7098966673        2.0567805787
 C         -2.0605087977       -0.7241532822        1.3982695615
 O         -1.7380733086       -0.6299421442        2.5620573907
 H         -2.1358287816       -1.7115542496        0.9112694914
