  56
        -94.15087928
 C          1.5846972308        0.4146928408        1.8893569595
 C          2.5358423932        0.6143867749        3.0714785506
 C          1.7090238111       -1.0182015518        1.3706252464
 O          2.5339166296       -1.3067507648        0.5143322533
 O          0.0010750437        2.4728883748        0.7492915153
 O         -0.2639335854        4.4089460870       -1.1345872556
 N          1.9254040560        1.2905179234        0.7926450445
 C          1.0754891745        2.1685957549        0.2491062580
 C          1.5680368731        2.7745761635       -1.0657552853
 C          1.1240161680        4.2520798804       -1.1619590756
 N          3.0036000394        2.5857368585       -1.2040672087
 N          0.8778772995       -1.9158204848        1.9150543963
 C          0.8236895460       -3.2990283131        1.4555038717
 C          0.1936319208       -4.1759129608        2.5226270052
 C         -0.0010365312       -3.3256777450        0.1498044132
 O         -1.1379616268       -3.7410940857        0.0936221661
 N          0.6681103784       -2.8053669081       -0.8999923628
 O          0.2333943829       -0.0407066591       -2.3217726266
 O         -1.5773451265       -0.9308465529       -1.3179457772
 C          0.0030541931       -2.4552155289       -2.1432060776
 C         -0.4195475762       -0.9899260516       -1.9855480020
 C          0.9399691860       -2.6377646180       -3.3251059907
 H          0.5547226459        0.6381234904        2.1863240825
 H          3.5555586942        0.3890113304        2.7673743390
 H          2.2569727695       -0.0419922159        3.8914169384
 H          2.4872796613        1.6450945201        3.4122067461
 H         -0.5777878960        3.8882927159       -0.3725339550
 H          2.7354806529        1.0361074501        0.2368616855
 H          1.0683937602        2.2009108443       -1.8567466600
 H          1.4731239502        4.6804086291       -2.1080447934
 H          1.5960750350        4.8113512752       -0.3345567004
 H          3.4988357288        3.2402435610       -0.6054764764
 H          3.2912348644        2.7624663567       -2.1594290238
 H          0.1367434565       -1.6141304834        2.5353204197
 H          1.8505771221       -3.6117650572        1.2344178204
 H         -0.8359802759       -3.8689890658        2.6900864899
 H          0.7497666707       -4.1007967092        3.4533975381
 H          0.1891707366       -5.2104273161        2.1916633191
 H          1.5779686522       -2.3803666500       -0.7331008529
 H         -0.8931202728       -3.0799337567       -2.2154783936
 H          0.4145062395       -2.4346843893       -4.2540483627
 H          1.3177950619       -3.6560262473       -3.3455571354
 H          1.7742703671       -1.9455645483       -3.2394616460
 C         -2.0708835370        0.2904898234       -0.8666411338
 C         -2.3341180025        0.4118969696        0.5047823563
 C         -2.2760590992        1.3571275832       -1.7215576629
 C         -2.8001717972        1.6294048074        0.9959998069
 C         -3.0274222956        2.6873441355        0.1387004265
 C         -2.7638211113        2.5518796035       -1.2151351729
 H         -2.0449459294        1.2569433432       -2.7704425300
 H         -3.3893438602        3.6272000264        0.5250541669
 H         -2.9125573133        3.3869090839       -1.8812741811
 H         -2.9776864933        1.7184458534        2.0566405841
 C         -2.0617932357       -0.7180274646        1.3938292155
 O         -1.7348221070       -0.6254672112        2.5564691487
 H         -2.1402415892       -1.7048729027        0.9061573298
