  56
        -94.15087877
 C         -1.9747947222       -3.0936422609       -0.3477431708
 C         -2.5740069488       -3.6835736398       -1.6144632146
 C         -2.6631787257       -1.7652904698        0.0157989550
 O         -3.4285852469       -1.1891712843       -0.7466979540
 O         -0.0183353771       -2.7162170265        1.6607568358
 O          1.2971237031       -1.5479962266       -2.0108674784
 N         -0.5439034109       -2.9163007015       -0.5257600211
 C          0.3252920841       -2.7741023596        0.4873701746
 C          1.8024826929       -2.8031128515        0.0739203236
 C          2.1827212799       -1.6862992790       -0.9232558848
 N          2.7001868744       -2.7160279048        1.2072242739
 N         -2.3641493222       -1.3382440480        1.2454094625
 C         -2.9185678375       -0.1329062683        1.8414442818
 C         -2.7051314688       -0.1692007016        3.3450189342
 C         -2.2309071200        1.0870399575        1.2129925712
 O         -1.3906846855        1.7599731345        1.7773087449
 N         -2.6401427997        1.3415604457       -0.0474884747
 O         -0.0681214516        0.6790885160       -0.9210607533
 O          0.4209909074        2.8626146821       -0.7141110071
 C         -1.8701860588        2.2816094009       -0.8326882533
 C         -0.4119513161        1.8307486345       -0.8136303863
 C         -2.3791068886        2.3180558521       -2.2682637230
 H         -2.1136009673       -3.7759151530        0.5019784030
 H         -2.0748404841       -4.6142532945       -1.8712013783
 H         -2.4690616589       -2.9781064445       -2.4352773805
 H         -3.6329409492       -3.8751483123       -1.4664023024
 H          0.6919834976       -0.8213806689       -1.8030514825
 H         -0.1916956678       -2.7998238392       -1.4686607146
 H          1.9629314972       -3.7751031060       -0.4145220275
 H          3.1699302077       -1.9275544994       -1.3282940790
 H          2.2626251223       -0.7481171211       -0.3719947117
 H          2.4191938155       -3.3941541638        1.9093803393
 H          2.6059874679       -1.8012885037        1.6439627411
 H         -1.5973727337       -1.8028672577        1.7398213121
 H         -3.9858856384       -0.0939781274        1.5879089273
 H         -3.1468629569        0.7116589628        3.8024546817
 H         -1.6393010859       -0.1694160716        3.5604243671
 H         -3.1586327294       -1.0603330455        3.7706538433
 H         -3.1578650435        0.6068997111       -0.5348570200
 H         -1.9240476610        3.2730468925       -0.3678156636
 H         -1.8068546541        3.0315015035       -2.8555492813
 H         -3.4248850111        2.6132735134       -2.2752224362
 H         -2.2889798356        1.3315221291       -2.7179510906
 C          1.7959951575        2.6316574916       -0.7216936168
 C          2.4223818679        1.8361968175        0.2414874577
 C          2.5322308916        3.2216654760       -1.7374134583
 C          3.7996097076        1.6287435881        0.1380344210
 C          4.5341988961        2.2169395226       -0.8710876263
 C          3.9003994785        3.0238255862       -1.8037292499
 H          2.0212248162        3.8297677184       -2.4677691109
 H          5.5980949343        2.0489933463       -0.9333165646
 H          4.4679275388        3.4915029608       -2.5935658042
 H          4.2693689703        0.9977064353        0.8780438519
 C          1.6972179700        1.2306196261        1.3784639686
 O          2.1327371595        0.3058117608        2.0191022950
 H          0.7285089495        1.6920840252        1.6236375963
