  56
        -94.15087854
 C         -1.9891256693       -3.0898766920       -0.3346682259
 C         -2.5953972016       -3.6841616158       -1.5959886705
 C         -2.6714568084       -1.7574067874        0.0249095254
 O         -3.4355654806       -1.1808531707       -0.7385519723
 O         -0.0247616702       -2.7114611749        1.6648085716
 O          1.2805432800       -1.5569842603       -2.0128483974
 N         -0.5583899096       -2.9179826872       -0.5190639302
 C          0.3148087563       -2.7744929702        0.4905831981
 C          1.7904445370       -2.8103892489        0.0720122067
 C          2.1718198818       -1.6984935228       -0.9303425562
 N          2.6926066212       -2.7235450660        1.2017604815
 N         -2.3686293862       -1.3268241651        1.2524175276
 C         -2.9171016208       -0.1166251282        1.8441276763
 C         -2.7020729503       -0.1473309065        3.3475901186
 C         -2.2248498999        1.0974046470        1.2094448320
 O         -1.3795491918        1.7680341741        1.7689827846
 N         -2.6355721529        1.3494026232       -0.0510012725
 O         -0.0625330397        0.6762129747       -0.9147837396
 O          0.4302091379        2.8599154612       -0.7174595470
 C         -1.8616530708        2.2822613299       -0.8409918051
 C         -0.4042514852        1.8291057855       -0.8137074391
 C         -2.3649819546        2.3072263098       -2.2788143559
 H         -2.1266079772       -3.7674325350        0.5190110728
 H         -2.1001674642       -4.6176554402       -1.8500729537
 H         -2.4916114655       -2.9831486379       -2.4207532195
 H         -3.6543135730       -3.8717184539       -1.4426664300
 H          0.6794727055       -0.8280886159       -1.8012209147
 H         -0.2095055895       -2.8043930770       -1.4635510105
 H          1.9450664932       -3.7846793814       -0.4137874319
 H          3.1547539332       -1.9472618251       -1.3410878129
 H          2.2614054455       -0.7593746938       -0.3819999487
 H          2.4115973539       -3.3985903015        1.9068722445
 H          2.6035970079       -1.8072226603        1.6362681042
 H         -1.6024930218       -1.7920861324        1.7470879892
 H         -3.9845336851       -0.0742646971        1.5916895526
 H         -1.6360156500       -0.1527400987        3.5617759612
 H         -3.1602558899       -1.0338328822        3.7778634403
 H         -3.1381500143        0.7381829858        3.8014710166
 H         -3.1579222608        0.6155497757       -0.5345947731
 H         -1.9156120646        3.2776563191       -0.3846582306
 H         -1.7872578079        3.0123933357       -2.8707452692
 H         -3.4094085909        2.6069216799       -2.2929000916
 H         -2.2773278068        1.3160070227       -2.7186182111
 C          1.8049402606        2.6275726265       -0.7242999646
 C          2.4307596016        1.8300933018        0.2375394218
 C          2.5417192135        3.2187458072       -1.7390307887
 C          3.8077892402        1.6216076653        0.1335312868
 C          4.5428586867        2.2108785811       -0.8746213953
 C          3.9097104879        3.0200073475       -1.8057636691
 H          2.0311286660        3.8284992064       -2.4683029448
 H          5.6066183987        2.0421864557       -0.9371693020
 H          4.4775822182        3.4886435790       -2.5947983931
 H          4.2770693395        0.9890504874        0.8725447571
 C          1.7056867931        1.2240442507        1.3743075811
 O          2.1403994186        0.2976965122        2.0132966256
 H          0.7385186207        1.6874751006        1.6216684352
