  56
        -94.15087826
 C         -2.0101716413       -3.0797390076       -0.3306705249
 C         -2.6229322571       -3.6709427082       -1.5902818686
 C         -2.6832811880       -1.7427582374        0.0296493737
 O         -3.4463915956       -1.1624824215       -0.7320302696
 O         -0.0396057742       -2.7130124757        1.6645838109
 O          1.2680046462       -1.5701992358       -2.0163895436
 N         -0.5787414249       -2.9167299601       -0.5181202688
 C          0.2974060683       -2.7790328869        0.4897176507
 C          1.7720147907       -2.8247237580        0.0687153384
 C          2.1587067236       -1.7148600081       -0.9337817223
 N          2.6764537028       -2.7439948503        1.1970655567
 N         -2.3733300877       -1.3125910427        1.2554404132
 C         -2.9116661951       -0.0985804212        1.8485821726
 C         -2.6901221320       -0.1300933492        3.3511125351
 C         -2.2147924132        1.1112082435        1.2107589863
 O         -1.3668655341        1.7799008816        1.7687116578
 N         -2.6246808740        1.3619492232       -0.0500785794
 O         -0.0562867291        0.6770262986       -0.9207686517
 O          0.4460036694        2.8582640658       -0.7199905759
 C         -1.8484263982        2.2908095115       -0.8424853477
 C         -0.3929233491        1.8312356179       -0.8177349069
 C         -2.3551756567        2.3171485546       -2.2790356227
 H         -2.1500902337       -3.7559680786        0.5236750524
 H         -2.5171537900       -2.9708696960       -2.4155919363
 H         -3.6825440004       -3.8522091960       -1.4342082979
 H         -2.1338747754       -4.6074572455       -1.8452463398
 H          0.6725391861       -0.8361922591       -1.8068769183
 H         -0.2309078126       -2.8076519253       -1.4634927302
 H          1.9195684301       -3.7997241305       -0.4178158947
 H          3.1407311454       -1.9681626641       -1.3440192141
 H          2.2521879969       -0.7759168296       -0.3858092174
 H          2.3925017306       -3.4176906464        1.9022812478
 H          2.5935283646       -1.8273526548        1.6320736699
 H         -1.6088152227       -1.7828557741        1.7480606225
 H         -3.9799267668       -0.0495004301        1.6008278490
 H         -3.1510000207       -1.0141265062        3.7835699062
 H         -3.1194109122        0.7577746718        3.8068340616
 H         -1.6231430563       -0.1411586175        3.5605057006
 H         -3.1527339335        0.6307512559       -0.5314913797
 H         -1.8969176018        3.2866822042       -0.3865549978
 H         -1.7777483052        3.0215977124       -2.8720965310
 H         -3.3991355610        2.6185952754       -2.2903306031
 H         -2.2703333931        1.3259790874       -2.7194831751
 C          1.8197786786        2.6206205618       -0.7250344296
 C          2.4407859929        1.8176070953        0.2353539828
 C          2.5608705977        3.2128776605       -1.7359741845
 C          3.8172313784        1.6044451146        0.1334672915
 C          4.5566216666        2.1949944056       -0.8707708780
 C          3.9283511307        3.0097966177       -1.8002607072
 H          2.0540490603        3.8271373959       -2.4640837997
 H          5.6199497629        2.0229218588       -0.9315217236
 H          4.4996459861        3.4796628068       -2.5860779223
 H          4.2826325258        0.9675256359        0.8711812325
 C          1.7115805912        1.2115753553        1.3694328808
 O          2.1407051282        0.2808868122        2.0058792140
 H          0.7469159916        1.6797362735        1.6177268243
