  56
        -94.15360548
 C         -1.2223975169       -0.9554633557       -2.0444697100
 C         -0.0532971029       -1.5014628981       -2.8453677991
 C         -0.9686693431        0.4877242784       -1.5781239786
 O          0.1409823703        0.9959687266       -1.5716029247
 O         -3.5735389080       -1.1548206365       -0.5437445611
 O         -0.3023199118       -3.5299261305        0.8951558754
 N         -1.4234818185       -1.7554060454       -0.8480249326
 C         -2.5880749796       -1.7883164193       -0.1829958296
 C         -2.5817499391       -2.5794979511        1.1269063825
 C         -1.6648529050       -3.8132389106        1.1261309108
 N         -2.2106438418       -1.7039930154        2.2327007045
 N         -2.0818027819        1.1036533153       -1.1516509105
 C         -2.0274950978        2.3382694904       -0.3816833477
 C         -3.4021471322        2.9824658291       -0.3406883093
 C         -1.5699327970        1.9005093380        1.0186530237
 O         -2.3161067080        1.3347102736        1.7916580820
 N         -0.2644205712        2.1201418892        1.2752706661
 O          0.6923679829       -0.8288933915        1.6065145999
 O          2.1804239128        0.7516265605        1.0061623858
 C          0.4199941628        1.4552315283        2.3729621670
 C          1.1200503408        0.2982339856        1.6650820676
 C          1.3739961057        2.4035792904        3.0813423112
 H         -2.1519938111       -0.9806075029       -2.6269116607
 H          0.8628610399       -1.4148515233       -2.2651947038
 H          0.0667890571       -0.9277811138       -3.7601842865
 H         -0.2230096122       -2.5450852751       -3.0970720714
 H         -0.0070915895       -2.8844194080        1.5528568789
 H         -0.6370930188       -2.2868446463       -0.4839619883
 H         -3.6082009552       -2.9188679826        1.3082588623
 H         -1.9662724553       -4.4994628494        0.3306036289
 H         -1.7841252620       -4.3166561179        2.0935866060
 H         -2.8461361984       -0.9142050237        2.2892798665
 H         -1.2841295703       -1.3137765312        2.0793755546
 H         -2.9185675387        0.5294054058       -1.0251245081
 H         -1.2808006373        2.9924676421       -0.8424417614
 H         -3.7762334141        3.1390016576       -1.3489028268
 H         -3.3496463088        3.9384764311        0.1732789571
 H         -4.0859478680        2.3320875797        0.2001761938
 H          0.3467245291        2.5096519798        0.5630760867
 H         -0.3477308298        1.0601269920        3.0467899157
 H          0.8101089598        3.2168283968        3.5298782412
 H          2.0825530608        2.8155866376        2.3678738519
 H          1.9161949513        1.8774663987        3.8626099046
 C          2.7344133394        0.0590654846       -0.0505642554
 C          2.9244668913        0.7833046672       -1.2385298995
 C          3.0894865277       -1.2765036981        0.0350094764
 C          3.4955820623        0.1274231162       -2.3271236988
 C          3.8614125274       -1.2025361823       -2.2419614177
 C          3.6529814206       -1.9036278889       -1.0646069548
 H          2.9208676222       -1.8213716583        0.9501003381
 H          4.2990699618       -1.6983598428       -3.0947824101
 H          3.9243293824       -2.9459892285       -0.9980517747
 H          3.6400159552        0.6729914701       -3.2478259203
 C          2.4731707785        2.1746732230       -1.3789437153
 O          2.0366781945        2.8867850220       -0.5101265721
 H          2.5768417431        2.5496963299       -2.4140219028
