  56
        -94.15086817
 C          2.1505356448       -2.1680139912       -0.4839368119
 C          3.0219140078       -3.2840636962       -1.0440778445
 C          0.6699438443       -2.5253737141       -0.6802196659
 O          0.1559847097       -2.5296070622       -1.7865479752
 O          0.5449605907        0.0872075246       -0.4407213360
 O          1.7680699360        3.6845461293       -2.2341217110
 N          2.4033525960       -0.9324828995       -1.1989786091
 C          1.5394162675        0.0849507489       -1.1521385037
 C          1.9020576684        1.2509076633       -2.0663265632
 C          1.5350226892        2.5840554990       -1.3861391455
 N          3.2986593841        1.1684859656       -2.4735164639
 N          0.0236148152       -2.8909717382        0.4353066652
 C         -1.3738365428       -3.2868182351        0.4302828195
 C         -1.6498216535       -4.2151270645        1.6027564425
 C         -2.3086157119       -2.0563441643        0.4789058884
 O         -3.0829628316       -1.8546200938        1.3908312380
 N         -2.2030303307       -1.2728555055       -0.6091428951
 O         -1.7071584999        2.0070102769       -1.1411445321
 O         -1.7498791942        1.0760835150        0.9142974568
 C         -2.9545323438       -0.0436118552       -0.7533586900
 C         -2.0625390711        1.1456246562       -0.3849712380
 C         -3.4885315136        0.0971572181       -2.1711857403
 H          2.3544507190       -2.0114931550        0.5823930845
 H          4.0730774260       -3.0138952768       -0.9743311101
 H          2.7638552119       -3.4615744217       -2.0858134942
 H          2.8586146862       -4.2005243500       -0.4831819485
 H          1.0631681661        3.7159881204       -2.8899777314
 H          3.1436073108       -0.8821554800       -1.8853861588
 H          1.2864499100        1.1400196456       -2.9697598004
 H          2.1753334523        2.7330557266       -0.5110864576
 H          0.4936928456        2.5445474205       -1.0581494569
 H          3.8912440124        1.3710649695       -1.6720229026
 H          3.4831409982        1.8961383508       -3.1577133174
 H          0.4489813598       -2.7149667387        1.3348120370
 H         -1.5530743508       -3.7970541516       -0.5245472432
 H         -1.4880765644       -3.6871382552        2.5395851412
 H         -0.9991959293       -5.0848812113        1.5606477833
 H         -2.6856222503       -4.5401264714        1.5756882442
 H         -1.4779698689       -1.4661861323       -1.2913378862
 H         -3.7650392871       -0.0945189084       -0.0146076678
 H         -4.1242162402       -0.7492628031       -2.4154236976
 H         -2.6594855114        0.1358225190       -2.8734199485
 H         -4.0618854765        1.0150201997       -2.2645713971
 C         -0.7563385351        1.8781525302        1.4402028067
 C          0.3072370654        1.2388834673        2.0941982819
 C         -0.7799760428        3.2579360272        1.3244720874
 C          1.3456087219        2.0094945946        2.6107239410
 C          1.3190208018        3.3864345724        2.4987284064
 C          0.2566744871        4.0065478081        1.8597280471
 H         -1.5978720210        3.7394820827        0.8118188458
 H          2.1251885587        3.9788631766        2.9043023919
 H          0.2353846138        5.0817713541        1.7674722093
 H          2.1629753317        1.5019753251        3.1013425193
 C          0.3150616653       -0.2225986760        2.1744313150
 O          1.2759132557       -0.9141653441        2.4266529872
 H         -0.6747210612       -0.6698952805        1.9942951843
