  56
        -94.15084989
 C          1.6211602174       -2.6079568415        1.3072845894
 C          2.2897644906       -3.9615493212        1.1364002408
 C          0.0897369015       -2.7520320099        1.3100746199
 O         -0.4847112345       -3.6309881007        0.6866323116
 O          1.2482960009        0.1929402124        1.1324381521
 O          3.3327226206        2.0372979571        0.4720536691
 N          1.9919066342       -1.7325521079        0.2114012115
 C          1.7921496048       -0.4142259062        0.2142231523
 C          2.4034840099        0.3115770374       -0.9747215814
 C          3.6598744673        1.0203052369       -0.4277673925
 N          2.7282200839       -0.6349887342       -2.0303454898
 N         -0.5418901585       -1.8233159862        2.0394391828
 C         -1.9886937928       -1.7858633761        2.1825786728
 C         -2.3574935789       -1.0999403792        3.4879980947
 C         -2.6035978505       -1.0466613511        0.9804737806
 O         -3.2206367549       -0.0090344565        1.0785060182
 N         -2.3629674370       -1.6673691409       -0.1937011793
 O         -0.3709010917       -0.4383933677       -2.1922304305
 O         -1.6534824808        1.1206880561       -1.1963205086
 C         -2.6159474613       -1.0060345069       -1.4602882491
 C         -1.4121612808       -0.0874980328       -1.6973349625
 C         -2.7700041509       -2.0249398315       -2.5757272056
 H          1.9315954973       -2.1277478309        2.2440731587
 H          1.8767532761       -4.4633643463        0.2645619065
 H          2.0985131448       -4.5805952153        2.0085662918
 H          3.3632766121       -3.8422052084        1.0151923975
 H          2.6380668654        1.7112587396        1.0678158470
 H          2.4248628930       -2.1174272892       -0.6192861135
 H          1.7054694253        1.0987852811       -1.2923150149
 H          4.2027729529        1.4949310830       -1.2511717260
 H          4.3212987872        0.2713988147        0.0365529610
 H          3.3218909503       -0.1905128847       -2.7229729472
 H          1.8625282387       -0.8950624121       -2.4966621257
 H         -0.0313366560       -0.9871528215        2.3064121722
 H         -2.3389392242       -2.8252525128        2.1646448056
 H         -3.4381999004       -1.0643717025        3.5895007735
 H         -1.9831709926       -0.0788016985        3.4877885986
 H         -1.9344041787       -1.6377668563        4.3322472182
 H         -1.8074304849       -2.5181779246       -0.2024522182
 H         -3.5074925681       -0.3825198995       -1.3336558422
 H         -3.0258129819       -1.5276924435       -3.5074715790
 H         -3.5554369454       -2.7322015842       -2.3245457465
 H         -1.8345762767       -2.5628665583       -2.7126326712
 C         -0.6715707414        2.1080020000       -1.2392679068
 C         -0.2216643349        2.6826124489       -0.0447261185
 C         -0.1661588003        2.5291564059       -2.4595417392
 C          0.7544960523        3.6762586308       -0.1101379809
 C          1.2627156896        4.0948418500       -1.3241549131
 C          0.7981855549        3.5241534688       -2.4985088339
 H         -0.5248499646        2.0719496362       -3.3696367200
 H          2.0237772723        4.8583953423       -1.3562122431
 H          1.1880849590        3.8460332188       -3.4525015527
 H          1.1050463792        4.0985457311        0.8188595795
 C         -0.7438013750        2.2547298678        1.2675872210
 O         -0.3148917622        2.6429899271        2.3238094385
 H         -1.5944823463        1.5580343686        1.2085968768
