  56
        -94.15084956
 C          1.6446994066       -2.5639413482        1.3472278061
 C          2.3356923325       -3.9102325345        1.2115507180
 C          0.1158689856       -2.7313131652        1.3347722368
 O         -0.4377924959       -3.6255059016        0.7141337547
 O          1.2384225366        0.2252393696        1.1210598205
 O          3.3147971204        2.0769242936        0.4484238676
 N          2.0141067421       -1.7048231259        0.2381317454
 C          1.7968436325       -0.3893630328        0.2167071981
 C          2.4075196356        0.3241654820       -0.9799184216
 C          3.6549387424        1.0517825494       -0.4373491921
 N          2.7463672082       -0.6355356897       -2.0191871411
 N         -0.5389917953       -1.8043182555        2.0455973905
 C         -1.9876145464       -1.7900566760        2.1738286424
 C         -2.3814154258       -1.0982278451        3.4688302317
 C         -2.6045721770       -1.0738763279        0.9587074818
 O         -3.2481766621       -0.0512287849        1.0418547952
 N         -2.3336614582       -1.6962509120       -0.2078853143
 O         -0.3481166326       -0.4475306005       -2.2111136341
 O         -1.6535962922        1.0883754337       -1.2083461000
 C         -2.5852273072       -1.0503044553       -1.4826793089
 C         -1.3944317325       -0.1136762637       -1.7151981039
 C         -2.7111709137       -2.0808741252       -2.5908468771
 H          1.9371250605       -2.0598227029        2.2771660319
 H          1.9394700384       -4.4365451544        0.3463843621
 H          2.1451291411       -4.5137105653        2.0947172354
 H          3.4084170182       -3.7766387759        1.0985599785
 H          2.6197207590        1.7523787156        1.0444243503
 H          2.4566215299       -2.0991757136       -0.5829897595
 H          1.7040994714        1.1002173069       -1.3129195756
 H          4.1966635425        1.5210473544       -1.2645962937
 H          4.3214535041        0.3150217581        0.0389658198
 H          3.3407003197       -0.1967137437       -2.7148628379
 H          1.8857250998       -0.9092582842       -2.4870210478
 H         -0.0449023370       -0.9585346247        2.3122605593
 H         -2.3197654249       -2.8355157636        2.1626958000
 H         -1.9613378798       -1.6230484823        4.3227134631
 H         -3.4636679471       -1.0766479886        3.5569210686
 H         -2.0211279793       -0.0720493630        3.4646669925
 H         -1.7623825503       -2.5364990178       -0.2032404956
 H         -3.4883790412       -0.4409994048       -1.3697587981
 H         -1.7659529724       -2.6049711160       -2.7133955957
 H         -2.9646567564       -1.5955337676       -3.5294682893
 H         -3.4879520094       -2.7984388163       -2.3420313569
 C         -0.6869532203        2.0908664862       -1.2431639060
 C         -0.2572124021        2.6720250082       -0.0443277371
 C         -0.1772544031        2.5210756440       -2.4584481062
 C          0.7038028310        3.6807543015       -0.1000918481
 C          1.2165041144        4.1082499092       -1.3090601375
 C          0.7715551829        3.5312895449       -2.4878640848
 H         -0.5202670234        2.0592429396       -3.3722338820
 H          1.9657894186        4.8835982137       -1.3336605198
 H          1.1648102670        3.8601835383       -3.4380631144
 H          1.0386379742        4.1081205325        0.8323910380
 C         -0.7854486222        2.2354144351        1.2623316089
 O         -0.3726150204        2.6275786419        2.3235435718
 H         -1.6258166322        1.5271897290        1.1939245244
