  56
        -94.15347916
 C         -2.8392159599       -0.0590333279       -1.4412588993
 C         -2.8706353551       -0.6508136734       -2.8390589016
 C         -2.2423978394        1.3589393841       -1.4442183235
 O         -1.6166251750        1.8314849521       -2.3785093424
 O         -2.7868098803       -0.0926566925        1.3904401196
 O          0.7270521318       -0.1696820094        2.0539955216
 N         -2.0193850915       -0.8970443617       -0.5762753702
 C         -2.0155131430       -0.8132371780        0.7596209686
 C         -1.0643776567       -1.7669012459        1.4799133918
 C         -0.2644809933       -1.0213993984        2.5676933022
 N         -1.8122391869       -2.8399702913        2.1250093514
 N         -2.4882994433        2.0187156124       -0.2994742881
 C         -1.8008423135        3.2549795090        0.0397190540
 C         -2.4595717540        3.8965597621        1.2481466723
 C         -0.3526245043        2.8437430385        0.3327700326
 O          0.0321471553        2.5205702304        1.4418000863
 N          0.4355786324        2.8324817645       -0.7646605055
 O          0.5839060509        0.1316453550       -0.8559128167
 O          2.7486968916        0.1387606124       -0.2307200973
 C          1.7481466398        2.2310293973       -0.6949944186
 C          1.6064307855        0.7137739071       -0.5984182875
 C          2.5713509014        2.5976712677       -1.9257985341
 H         -3.8454423632       -0.0094197177       -1.0053666176
 H         -3.4896241537       -0.0363372572       -3.4869276402
 H         -3.2676568835       -1.6620462938       -2.8146528458
 H         -1.8622791845       -0.6727730855       -3.2442278698
 H          0.3723017548        0.7281588533        1.9424112670
 H         -1.2928962388       -1.4244650697       -1.0446826854
 H         -0.3670193088       -2.2152490804        0.7689722770
 H          0.2472571835       -1.7804417160        3.1680247509
 H         -0.9676713232       -0.4780061343        3.2079060401
 H         -2.3352118017       -3.3630873172        1.4298247871
 H         -2.4832525541       -2.4340761792        2.7712003796
 H         -2.8457734941        1.4716260088        0.4880545254
 H         -1.8301957154        3.9149477443       -0.8341350021
 H         -2.3409303049        3.2468312180        2.1120018308
 H         -3.5179052298        4.0543841944        1.0595357232
 H         -1.9883513240        4.8511549858        1.4657418008
 H         -0.0453215844        2.7719483586       -1.6615179142
 H          2.2358502438        2.5812092469        0.2216684609
 H          3.5576881717        2.1464720992       -1.8628880612
 H          2.6778049663        3.6774164919       -1.9866765624
 H          2.0723304221        2.2439121917       -2.8257104433
 C          2.7469411544       -1.1891032584        0.1832240833
 C          2.0043036562       -2.1838068128       -0.4519638048
 C          3.4840860308       -1.4782438403        1.3214810340
 C          1.9801091805       -3.4613106240        0.1076026647
 C          2.7178857721       -3.7519044992        1.2369643873
 C          3.4805461315       -2.7609717965        1.8360631905
 H          4.0322910279       -0.6827017166        1.7989025978
 H          2.6927014833       -4.7460324341        1.6554614344
 H          4.0577777095       -2.9815342955        2.7207470180
 H          1.3778403957       -4.2177531543       -0.3733219326
 C          1.2376208450       -1.9297094124       -1.6886784281
 O          0.1721682095       -2.4365717800       -1.9445144249
 H          1.7681717102       -1.3120940644       -2.4393118222
