  56
        -94.15078121
 C          2.5334400162       -0.9761589948       -0.0606976072
 C          3.9665512591       -1.4190845634       -0.3603818321
 C          1.5572018212       -2.0317271449       -0.5838034460
 O          1.2740012452       -2.0947924696       -1.7699699541
 O          1.6874546397        1.4523645006        1.1137789471
 O          3.7815914377        2.6914840839       -1.8349265094
 N          2.2410010899        0.2685314425       -0.7287808633
 C          1.7947863677        1.3575889930       -0.1012775627
 C          1.4991425452        2.5388168922       -1.0182046627
 C          2.7851685894        3.3823811890       -1.1365167582
 N          1.1435151212        2.0794886905       -2.3538080208
 N          1.0973250902       -2.8962772375        0.3331947407
 C          0.1034523229       -3.9099307351        0.0129279163
 C          0.2068180930       -5.0694900235        0.9894772708
 C         -1.2900361412       -3.2518087741        0.0720219414
 O         -2.1085714593       -3.4993149137        0.9280346661
 N         -1.4855128381       -2.3826247778       -0.9426748252
 O         -1.0657030390        0.4660393657       -1.1422818533
 O         -2.6472365340        0.5051423209        0.4525849850
 C         -2.5617422923       -1.4198932822       -0.9150223990
 C         -1.9736074190       -0.0585887619       -0.5514445888
 C         -3.2467148183       -1.3287659517       -2.2775070133
 H          2.3936221573       -0.8069194038        1.0103033048
 H          4.2044936064       -2.3232624371        0.1938627103
 H          4.6612139538       -0.6323219725       -0.0781835996
 H          4.0736984177       -1.6194627005       -1.4239133617
 H          3.3441410940        2.2696179290       -2.5888630216
 H          2.1928424549        0.2410691188       -1.7387500770
 H          0.7232326982        3.1459593657       -0.5223937233
 H          3.1794330027        3.6112140464       -0.1445284168
 H          2.5432971613        4.3283844782       -1.6478018162
 H          0.3515169589        1.4471037978       -2.2878028015
 H          0.8568688718        2.8698222457       -2.9239815160
 H          1.1687962161       -2.6526277814        1.3096339907
 H          0.3009572584       -4.2360014011       -1.0142127051
 H         -0.4802459642       -5.8573874281        0.6951662783
 H         -0.0718578531       -4.7354802881        1.9859492772
 H          1.2191345852       -5.4651100065        1.0064525121
 H         -0.7054601223       -2.1679058035       -1.5562718745
 H         -3.2614208675       -1.7307044269       -0.1336187105
 H         -4.0750668152       -0.6261074622       -2.2380205113
 H         -3.6255298414       -2.3067557651       -2.5612097250
 H         -2.5323138901       -0.9940197542       -3.0265173842
 C         -2.1420432948        1.6651353413        1.0295418084
 C         -1.0003431243        1.6196991529        1.8368716892
 C         -2.8373804014        2.8503660045        0.8482759977
 C         -0.5793618632        2.7970920874        2.4546576929
 C         -1.2590834691        3.9827512053        2.2594693166
 C         -2.3919211524        4.0089886380        1.4596225436
 H         -3.7201585192        2.8504633780        0.2273355410
 H         -0.9119992133        4.8885185871        2.7327480272
 H         -2.9299447610        4.9327734451        1.3089819715
 H          0.3108168965        2.7654322496        3.0628032172
 C         -0.2399699726        0.3787701955        2.0643195804
 O         -0.3408977564       -0.6467192372        1.4304776735
 H          0.4188691481        0.4364832704        2.9471745986
