  56
        -94.15077896
 C          2.5292256031       -0.9871600165       -0.0464613769
 C          3.9620646084       -1.4405648965       -0.3313783257
 C          1.5504134637       -2.0379159266       -0.5745458935
 O          1.2735729017       -2.0996379219       -1.7623629181
 O          1.6834177773        1.4528586382        1.1084437873
 O          3.8075652791        2.6604234404       -1.8364883458
 N          2.2506528129        0.2565257828       -0.7222224830
 C          1.8019031208        1.3504679646       -0.1049071507
 C          1.5193858439        2.5269426224       -1.0320897585
 C          2.8108599351        3.3622486319       -1.1494188460
 N          1.1689167022        2.0593842214       -2.3663271114
 N          1.0808321383       -2.8997926056        0.3399465337
 C          0.0811735875       -3.9062202072        0.0149964030
 C          0.1695018893       -5.0649416879        0.9939918195
 C         -1.3077701484       -3.2375029833        0.0645756763
 O         -2.1335211575       -3.4780375716        0.9155913888
 N         -1.4906192455       -2.3687695454       -0.9528284083
 O         -1.0588901227        0.4828811317       -1.1427832253
 O         -2.6451250314        0.5139598825        0.4476094307
 C         -2.5616902471       -1.3999703531       -0.9354988240
 C         -1.9705301051       -0.0432329860       -0.5591410330
 C         -3.2275754347       -1.3002446092       -2.3066549006
 H          2.3807583126       -0.8130780184        1.0225671970
 H          4.6594771299       -0.6582238845       -0.0438052103
 H          4.0783097945       -1.6435659905       -1.3934420708
 H          4.1882674645       -2.3453854360        0.2266959728
 H          3.3724975064        2.2362500264       -2.5904808047
 H          2.2106102987        0.2241406614       -1.7324603801
 H          0.7440270454        3.1421209926       -0.5455891848
 H          3.2007038504        3.5968201773       -0.1570429059
 H          2.5772891489        4.3054771991       -1.6696089265
 H          0.3727632947        1.4323337526       -2.2997000178
 H          0.8898681757        2.8469364168       -2.9440674279
 H          1.1483532353       -2.6559523818        1.3166317687
 H          0.2823615031       -4.2354533930       -1.0104252633
 H         -0.1127357902       -4.7270980140        1.9881624622
 H          1.1785746899       -5.4684023683        1.0179013773
 H         -0.5218742540       -5.8479331061        0.6967212765
 H         -0.7050253503       -2.1604027492       -1.5615419221
 H         -3.2730597357       -1.7095702615       -0.1642527851
 H         -4.0535132397       -0.5943482094       -2.2755820202
 H         -3.6063306164       -2.2754211128       -2.5999075945
 H         -2.5016035332       -0.9650760189       -3.0442660950
 C         -2.1410987292        1.6698965334        1.0336571799
 C         -0.9999647153        1.6204417990        1.8415047403
 C         -2.8379563854        2.8554251960        0.8604559090
 C         -0.5805079580        2.7943513055        2.4669235707
 C         -1.2617763567        3.9803172914        2.2798530755
 C         -2.3945780543        4.0103518614        1.4801715199
 H         -3.7204808462        2.8585370037        0.2391917215
 H         -0.9161381327        4.8832782043        2.7595106836
 H         -2.9341199595        4.9342471330        1.3360414391
 H          0.3093290727        2.7597093077        3.0753800910
 C         -0.2397149880        0.3786472940        2.0635008867
 O         -0.3434560840       -0.6456129626        1.4281232183
 H          0.4212213625        0.4337896415        2.9450252505
