  56
        -94.15077093
 C         -0.7425012072       -3.1645910670       -1.3504566407
 C         -0.9005393513       -3.2297145834       -2.8601178416
 C         -1.9830511576       -2.5521828531       -0.6827197249
 O         -2.8953461294       -2.0395678191       -1.3090097333
 O          0.7755164220       -3.3648838449        0.9667468677
 O          3.9502402904       -0.0682615016       -0.3757678128
 N          0.4123271719       -2.3453108902       -1.0059143471
 C          1.0877735678       -2.5123681914        0.1431052996
 C          2.2483119890       -1.5625297012        0.4301635224
 C          2.8075080614       -0.7876609296       -0.7656102458
 N          1.8562587166       -0.5810682819        1.4422546728
 N         -1.9331918153       -2.6110822556        0.6577252277
 C         -2.8015405851       -1.8057472064        1.5049337993
 C         -2.6389127253       -2.2164700593        2.9566750939
 C         -2.3568294592       -0.3532343456        1.2660042708
 O         -1.4858233730        0.1957883686        1.9167207739
 N         -2.9683042410        0.2325851749        0.2195771087
 O         -0.2506873518        0.5360123045       -0.6453133006
 O         -0.4382148855        2.5350655503        0.3697119094
 C         -2.4432463318        1.4885342274       -0.2875839040
 C         -0.9214589459        1.4407275578       -0.2129745275
 C         -2.8718350928        1.6927139926       -1.7344736473
 H         -0.5646766530       -4.1594065743       -0.9254955314
 H         -1.7408802750       -3.8697738457       -3.1129465639
 H          0.0020528088       -3.6240416546       -3.3190440596
 H         -1.1012243931       -2.2357624900       -3.2528788315
 H          3.7474739555        0.3041863871        0.4939041052
 H          0.5218328239       -1.4891732830       -1.5272279047
 H          3.0562287830       -2.1666216237        0.8640241894
 H          2.0452040888       -0.0909828461       -1.1440682131
 H          3.1150768543       -1.4646793231       -1.5660681486
 H          1.6015141282       -1.0544948832        2.3027749395
 H          1.0299953079       -0.0803848401        1.1247755855
 H         -1.0991660582       -3.0044852104        1.0894125041
 H         -3.8347337495       -1.9344715068        1.1635549621
 H         -2.8180192717       -3.2823586445        3.0700846873
 H         -3.3417719120       -1.6681423005        3.5779295872
 H         -1.6303001799       -1.9830595679        3.2898831251
 H         -3.4374895497       -0.3731397602       -0.4496600448
 H         -2.7844339846        2.3136029111        0.3488763640
 H         -2.3886760765        2.5749997720       -2.1447295167
 H         -3.9507510180        1.8118153416       -1.7890765196
 H         -2.5765443641        0.8291657850       -2.3264184568
 C          0.9337272798        2.6780798336        0.4982123964
 C          1.7704575648        2.7747912062       -0.6224669084
 C          1.4577608567        2.7247421255        1.7800780194
 C          3.1447216462        2.9090886494       -0.4134976879
 C          3.6650701559        2.9697860018        0.8637866984
 C          2.8206450754        2.8800133279        1.9607889970
 H          0.7848563293        2.6256181876        2.6167995396
 H          4.7292159028        3.0768362961        1.0054476529
 H          3.2244744964        2.9187922627        2.9606240165
 H          3.7990501270        2.9688839149       -1.2699000423
 C          1.2509582075        2.7639861630       -1.9952840560
 O          0.1000421040        2.8989124706       -2.3269765323
 H          2.0476193132        2.6315295319       -2.7538137670
