  56
        -94.15076871
 C         -1.9236980856       -3.0363399262        1.6036610393
 C         -2.5572470045       -4.3656379275        1.2355285954
 C         -2.7817338101       -1.8465678383        1.1400074526
 O         -3.5786031849       -1.9263302075        0.2193794458
 O          0.2003653622       -1.2930904244        2.2988812391
 O          2.7649994015       -0.4077176711        1.7263849100
 N         -0.6484600087       -2.8770248837        0.9251741912
 C          0.2662217503       -1.9681089594        1.2748240761
 C          1.3903797941       -1.8008681578        0.2616373420
 C          2.7357263722       -1.5949852776        0.9892666866
 N          1.3783485595       -2.8848022413       -0.7087149724
 N         -2.5009343016       -0.7074885902        1.7889307372
 C         -3.0516490996        0.5766585572        1.3922301972
 C         -3.0272015897        1.5356946680        2.5709102890
 C         -2.2496764908        1.1473512570        0.2062787674
 O         -1.6131113857        2.1807465318        0.2678077845
 N         -2.3014322845        0.3841434952       -0.8935559420
 O         -0.3672238014        2.8080704812       -2.3257734027
 O          0.4887695251        1.0756621479       -1.1671060132
 C         -1.6558241970        0.7737807090       -2.1336242816
 C         -0.4791121506        1.7128005299       -1.8552860143
 C         -1.1782001842       -0.4648734648       -2.8862504346
 H         -1.7420406843       -2.9632922456        2.6816202000
 H         -3.4608603977       -4.5171092658        1.8191615693
 H         -1.8671262613       -5.1820756986        1.4306488291
 H         -2.8288540627       -4.3618181838        0.1826051188
 H          1.9600389163       -0.4003614065        2.2727585798
 H         -0.5096030082       -3.3072433581        0.0169668007
 H          1.1525691003       -0.8709135087       -0.2669089277
 H          3.5435351913       -1.5288263612        0.2523655633
 H          2.9288515360       -2.4666566851        1.6381618681
 H          1.9420091586       -3.6621979588       -0.3787243006
 H          1.7755048744       -2.5585750274       -1.5838389334
 H         -1.6859489226       -0.6838510788        2.3956111969
 H         -4.0784308799        0.3969617798        1.0501132390
 H         -3.4507280428        2.4910511723        2.2752366509
 H         -2.0001494058        1.7028445122        2.8868310131
 H         -3.5991144320        1.1303416179        3.4013554968
 H         -2.8842389233       -0.4468890096       -0.9036637051
 H         -2.3642333742        1.3441955430       -2.7527713981
 H         -0.7485389739       -0.1744202799       -3.8410435437
 H         -2.0181782811       -1.1320490875       -3.0670829785
 H         -0.4194166727       -0.9900681218       -2.3126471732
 C          1.5908712561        1.7968550086       -0.7497130143
 C          2.8768646388        1.3709266618       -1.1199517829
 C          1.4210165602        2.9117616189        0.0555616564
 C          3.9755492769        2.0886665408       -0.6379082846
 C          3.8062549350        3.1880472681        0.1752355958
 C          2.5266773517        3.6012056844        0.5178573162
 H          0.4177604743        3.2123732644        0.3143108786
 H          4.6664435564        3.7265415015        0.5424734069
 H          2.3882404935        4.4641117277        1.1512353677
 H          4.9686135220        1.7625535180       -0.9113001534
 C          3.1155435022        0.2269196354       -1.9943947915
 O          2.3010948290       -0.5660952416       -2.4062758134
 H          4.1828523787        0.1235673196       -2.2786690331
