  56
        -94.15076831
 C          2.5183948407       -1.0092271267       -0.0290176783
 C          3.9503567854       -1.4780251943       -0.2923806099
 C          1.5357870389       -2.0533722104       -0.5632655591
 O          1.2692005850       -2.1154468395       -1.7534646381
 O          1.6767906525        1.4471518937        1.0972368141
 O          3.8424068192        2.6199755461       -1.8310243344
 N          2.2598799713        0.2323667800       -0.7164984534
 C          1.8089360680        1.3335828653       -0.1136815164
 C          1.5435150649        2.5031593669       -1.0546495448
 C          2.8394430607        3.3323113443       -1.1640713904
 N          1.2069310800        2.0245465148       -2.3886661897
 N          1.0499245417       -2.9086608634        0.3488645826
 C          0.0420419586       -3.9046559729        0.0171792220
 C          0.1104912009       -5.0634832280        0.9976333956
 C         -1.3399492316       -3.2209542471        0.0560525689
 O         -2.1753279661       -3.4535882346        0.8998025236
 N         -1.5049073599       -2.3487537330       -0.9614995439
 O         -1.0408964607        0.5000151971       -1.1402497225
 O         -2.6389517185        0.5415463438        0.4384201495
 C         -2.5649100458       -1.3677549726       -0.9511068744
 C         -1.9621643366       -0.0186503704       -0.5650761187
 C         -3.2169635171       -1.2564505952       -2.3279798413
 H          2.3579224888       -0.8270782483        1.0368706590
 H          4.1607225832       -2.3811403714        0.2745961835
 H          4.6513885436       -0.7003591190       -0.0009402339
 H          4.0784285583       -1.6892491934       -1.3514606005
 H          3.4159043635        2.1901644434       -2.5866592799
 H          2.2308399654        0.1924455185       -1.7269146500
 H          0.7647845002        3.1256833085       -0.5833168667
 H          3.2173929050        3.5756999831       -0.1692388182
 H          2.6160560977        4.2709752605       -1.6968906902
 H          0.4054377412        1.4040457038       -2.3250862931
 H          0.9403635776        2.8081621358       -2.9775919900
 H          1.1103742520       -2.6625741024        1.3254784828
 H          0.2473622960       -4.2368181693       -1.0064689818
 H          1.1148246332       -5.4780739611        1.0290295262
 H         -0.5874233391       -5.8389789547        0.6960213042
 H         -0.1750276581       -4.7217195042        1.9895234371
 H         -0.7126137192       -2.1491828286       -1.5642999104
 H         -3.2867514984       -1.6714950073       -0.1873146180
 H         -4.0346997355       -0.5408456407       -2.3024467900
 H         -3.6045513249       -2.2262230671       -2.6275580330
 H         -2.4803797544       -0.9278684144       -3.0580059718
 C         -2.1293571368        1.6898468877        1.0343802321
 C         -0.9920521428        1.6277738522        1.8467570960
 C         -2.8181551241        2.8809129136        0.8667052584
 C         -0.5679779658        2.7947923925        2.4819100833
 C         -1.2414264132        3.9860660917        2.3009192703
 C         -2.3706431049        4.0286177157        1.4967418585
 H         -3.6979792042        2.8938591229        0.2417477537
 H         -0.8924978009        4.8834111983        2.7886519552
 H         -2.9041457475        4.9567104685        1.3571937234
 H          0.3189210219        2.7504942240        3.0940243683
 C         -0.2403918314        0.3802570757        2.0641763825
 O         -0.3547578466       -0.6432112846        1.4291501793
 H          0.4243727306        0.4296468776        2.9432438503
