  56
        -94.15343273
 C          2.5658449653       -1.0424334407       -0.3699912988
 C          3.9269508739       -1.4550552612       -0.9287278954
 C          1.5532118649       -2.1661470574       -0.6123953818
 O          1.1724319333       -2.4276528906       -1.7445564843
 O          1.9508994781        1.4931619775        0.7515251598
 O          2.2243007910        4.1067170890       -0.0744375587
 N          2.0663324168        0.1314266779       -1.0485228918
 C          1.7419347395        1.2680568836       -0.4399531570
 C          1.1328228680        2.3364839142       -1.3417112027
 C          2.1120225535        3.5284878512       -1.3420016033
 N          0.9134007049        1.8170894103       -2.6799190667
 N          1.1549260541       -2.8349387810        0.4774014959
 C          0.1359741676       -3.8723180408        0.4230782057
 C          0.2930469628       -4.8144255276        1.6047790264
 C         -1.2540237864       -3.2026661437        0.4322843496
 O         -2.0420744022       -3.3050687302        1.3431048664
 N         -1.4829047982       -2.4979588721       -0.6967735052
 O         -1.5733883577        0.4670259280       -1.5788321244
 O         -2.1287259536        0.2278190033        0.5829937272
 C         -2.6068207491       -1.5956150277       -0.8297327494
 C         -2.0549045222       -0.1775358792       -0.6814875755
 C         -3.2912717766       -1.7707480097       -2.1791557791
 H          2.6366089145       -0.7950845560        0.6926872346
 H          3.8245708365       -1.7197420997       -1.9785665492
 H          4.3075303240       -2.3155740835       -0.3847752663
 H          4.6334547866       -0.6344856073       -0.8344747360
 H          2.3025530044        3.3776320714        0.5665844426
 H          1.8462788593        0.0548287418       -2.0353037547
 H          0.2083315957        2.6825915634       -0.8473033073
 H          1.7439613855        4.3101302952       -2.0141227320
 H          3.0904312840        3.1845775370       -1.7127784982
 H          0.7670926861        2.5816941647       -3.3302434128
 H          0.0636678079        1.2583156077       -2.6787706186
 H          1.2831123290       -2.4060034039        1.3836134557
 H          0.2665428663       -4.4014623297       -0.5278688875
 H          0.0980256224       -4.2760236232        2.5288838197
 H          1.2966038241       -5.2311020786        1.6296512836
 H         -0.4286524372       -5.6222080167        1.5271319658
 H         -0.7539304334       -2.4421181673       -1.4013890129
 H         -3.2798654766       -1.8073925004        0.0075323156
 H         -4.1697151591       -1.1340789815       -2.2423796110
 H         -3.5942472863       -2.8061599106       -2.3057786925
 H         -2.6042992642       -1.4984116896       -2.9770443492
 C         -1.7016711525        1.5050221933        0.9237248938
 C         -0.6225890364        1.6705707158        1.8004050830
 C         -2.3920933207        2.6053217412        0.4381045454
 C         -0.2787989395        2.9652356833        2.1912822263
 C         -0.9608231705        4.0615880627        1.7030800075
 C         -2.0156896937        3.8811450805        0.8216283529
 H         -3.2156245724        2.4517205938       -0.2431090236
 H         -0.6651415274        5.0560563750        1.9975223775
 H         -2.5484906361        4.7337498805        0.4290790508
 H          0.5584098431        3.0975139002        2.8588766732
 C          0.2091110472        0.5453789297        2.2509728499
 O          0.1678370163       -0.5861266641        1.8322481487
 H          0.9138259774        0.8273361071        3.0532552425
