  56
        -94.15073269
 C         -0.0343149006       -0.5447986999       -2.3932348641
 C          1.0447173169       -1.6040492378       -2.5477557282
 C          0.4842971760        0.6761182280       -1.6210818187
 O          1.5091730936        0.6501561730       -0.9607304120
 O         -2.6783309756        0.3489554144       -2.4879472933
 O         -3.9425608727        0.0102058439        0.9760427257
 N         -1.1598435285       -1.0901432930       -1.6471149879
 C         -2.4071496635       -0.5836926577       -1.7426853342
 C         -3.4753862475       -1.3754514122       -0.9932765709
 C         -4.4559428542       -0.4566062526       -0.2382723988
 N         -4.2306992271       -2.1715857234       -1.9546897330
 N         -0.3265112369        1.7448641016       -1.7157413643
 C         -0.2721450011        2.8289790968       -0.7409635471
 C         -0.9916722849        4.0540242818       -1.2730101146
 C         -0.9931947875        2.2036667007        0.4621172105
 O         -2.2071940465        2.0962127647        0.4776303704
 N         -0.1817127403        1.6701367824        1.3866566028
 O         -0.2940899263       -1.4463944024        1.0742161987
 O          1.4621351412       -0.4743134080        2.0925258503
 C         -0.5937154656        0.6234105405        2.3105820900
 C          0.1695174611       -0.5882300383        1.7793624796
 C         -0.2385800047        0.9776899697        3.7473856003
 H         -0.4193814466       -0.2194251590       -3.3665702888
 H          0.6418009727       -2.4870444410       -3.0366142284
 H          1.4311964679       -1.8784208595       -1.5684220705
 H          1.8659686597       -1.2096323048       -3.1394910264
 H         -3.3886505354        0.7931972829        0.8057692086
 H         -0.9274117877       -1.6702982877       -0.8513333894
 H         -3.0078083284       -2.0540830483       -0.2727621683
 H         -5.3412672187       -1.0542677955       -0.0019530473
 H         -4.7486957042        0.3684702360       -0.8989407634
 H         -3.6064190753       -2.7731724015       -2.4827219813
 H         -4.6906780509       -1.5498613788       -2.6131757037
 H         -1.2326797103        1.6056079151       -2.1648922154
 H          0.7780438439        3.0300137888       -0.5125315124
 H         -0.5760057505        4.3497349316       -2.2324704943
 H         -0.8901432096        4.8771052414       -0.5709858930
 H         -2.0484510264        3.8259188930       -1.3927530440
 H          0.8248607209        1.8104174003        1.3273084732
 H         -1.6687314781        0.4556923069        2.1891164657
 H          0.8270873231        1.1736969377        3.8313268677
 H         -0.5069815475        0.1600514134        4.4108285485
 H         -0.7875396653        1.8665221997        4.0458748265
 C          2.4157046148       -1.1972940062        1.4057133816
 C          3.4354625620       -0.4721190675        0.7697738685
 C          2.3750651183       -2.5798086919        1.3351942996
 C          4.4130847859       -1.1806090909        0.0729854536
 C          4.3805093803       -2.5600656205        0.0090458624
 C          3.3607625011       -3.2579773399        0.6371669875
 H          1.5737662676       -3.1153910905        1.8199020911
 H          5.1432866524       -3.0943190337       -0.5363208135
 H          3.3270461394       -4.3354081007        0.5818583927
 H          5.1981189283       -0.6321562723       -0.4261946746
 C          3.4618713409        0.9953809990        0.7664523937
 O          2.7499837813        1.7372687178        1.3971636210
 H          4.2475234767        1.4029548679        0.1037946159
