  56
        -94.15055010
 C          1.2698932066       -2.7693793585       -0.1697653498
 C          1.7337775165       -4.1917023569       -0.4481347522
 C         -0.2249183851       -2.6282641287       -0.4906330486
 O         -0.6196900145       -2.5617882087       -1.6448661717
 O          0.6780246061       -0.1150492051       -0.3704162129
 O          2.2657149530        2.2733300395       -0.7455218200
 N          1.9839349847       -1.8318191579       -1.0182589283
 C          1.5379661435       -0.5690094805       -1.1095972288
 C          2.1910440692        0.2682572656       -2.2074630846
 C          2.9876109049        1.4480091954       -1.6032059342
 N          3.0200822620       -0.5621662537       -3.0723816189
 N         -1.0436603987       -2.6142501230        0.5683691081
 C         -2.4815207813       -2.4526100467        0.4332007102
 C         -3.1840652842       -3.0590626411        1.6374848044
 C         -2.8657984991       -0.9624727535        0.2727681638
 O         -3.5825666152       -0.3800394986        1.0588681225
 N         -2.3591060462       -0.4046104353       -0.8425363897
 O         -0.4845644939        2.2843240277       -1.4436147375
 O         -1.2283344226        1.7750502698        0.6254010834
 C         -2.5288328703        0.9995709641       -1.1561295958
 C         -1.2806934027        1.7666124134       -0.7020777381
 C         -2.7789871916        1.1900915762       -2.6443857107
 H          1.4497948919       -2.4943699631        0.8753790042
 H          2.8071821069       -4.2739463139       -0.2948735265
 H          1.4954739603       -4.4624455944       -1.4747952500
 H          1.2308309193       -4.8848191546        0.2209578159
 H          1.3550886872        2.3658566934       -1.0783006152
 H          2.4847178987       -2.1875790173       -1.8213002692
 H          1.3630183280        0.6809803752       -2.7966094492
 H          3.4010425657        2.0335137436       -2.4455573291
 H          3.8283354813        1.0520661933       -1.0191724046
 H          3.9406398883       -0.6763993628       -2.6575999546
 H          3.1503392115       -0.1126977920       -3.9713485120
 H         -0.6508691251       -2.5116606760        1.4946810002
 H         -2.7723365142       -2.9673552784       -0.4913632866
 H         -2.8920449525       -2.5304066152        2.5418472829
 H         -2.9298753742       -4.1112877057        1.7360313637
 H         -4.2591969974       -2.9584556727        1.5223759521
 H         -1.7263266734       -0.9447712376       -1.4230231738
 H         -3.3745198876        1.3488297270       -0.5500701057
 H         -3.6658160049        0.6397890508       -2.9458744273
 H         -1.9249102333        0.8267626260       -3.2107453824
 H         -2.9180570713        2.2439649279       -2.8682698459
 C         -0.0878152329        2.1962376925        1.2952082473
 C          0.5804799027        1.2547308773        2.0893633085
 C          0.3814090944        3.4926348059        1.1929381921
 C          1.7423853323        1.6375593833        2.7535432419
 C          2.2104937230        2.9330709235        2.6536012989
 C          1.5282764787        3.8574377049        1.8798940338
 H         -0.1384368056        4.2044112943        0.5703566974
 H          3.1121034902        3.2235669757        3.1712090654
 H          1.8958152132        4.8686625729        1.7962785560
 H          2.2592059596        0.8977398338        3.3466295099
 C          0.0493755779       -0.1051398131        2.1702964962
 O          0.6361138766       -1.0832165656        2.5776738154
 H         -0.9991744896       -0.1743920353        1.8406386272
