  56
        -94.15053739
 C         -2.2554146385       -0.0075097471        0.4882356546
 C         -3.7364487816        0.1476862053        0.8534886269
 C         -1.6103111755        1.3750645062        0.4087646255
 O         -1.4981246127        1.9579895186       -0.6609083639
 O         -1.5962412726       -2.7043484105       -0.0719502586
 O         -1.0211793064       -4.6189206577       -1.9162588936
 N         -2.0991095032       -0.6300756841       -0.8039774343
 C         -1.7316762522       -1.9016055994       -0.9827903978
 C         -1.4843541667       -2.2755901181       -2.4481106065
 C         -1.8325490051       -3.7661426087       -2.6674022731
 N         -2.1901093350       -1.3582942645       -3.3279150454
 N         -1.2335556734        1.9018728914        1.5792702480
 C         -0.6221203142        3.2202198715        1.6978208636
 C         -0.7220584028        3.7015735342        3.1345646547
 C          0.8527441517        3.1283593264        1.2460938453
 O          1.7826752428        3.1055406540        2.0232059964
 N          0.9843907660        3.0770158559       -0.0940745431
 O          3.2433162026        0.7486638325       -1.6172915247
 O          1.6309682417        0.5991415851       -0.0359658775
 C          2.2475724917        2.7643752108       -0.7187067261
 C          2.4477093710        1.2513651187       -0.8749286775
 C          2.3827465223        3.4575990041       -2.0688031400
 H         -1.7564535591       -0.6397037139        1.2298408406
 H         -4.2394030479        0.7677788416        0.1146798409
 H         -3.8377610622        0.6084613093        1.8322647024
 H         -4.2080977000       -0.8310967123        0.8753657996
 H         -1.0947592933       -4.3177382812       -0.9927167550
 H         -2.1347734766       -0.0199163742       -1.6132739990
 H         -0.4069671991       -2.1512182722       -2.6182022065
 H         -1.6787077204       -4.0290585305       -3.7196242388
 H         -2.8976590137       -3.9184707990       -2.4238209972
 H         -3.1892113491       -1.5355771899       -3.2822215846
 H         -1.8994378009       -1.4989820226       -4.2890916686
 H         -1.2497734831        1.3364291908        2.4162435808
 H         -1.1539759039        3.8923176671        1.0139422965
 H         -0.1378355826        3.0505655978        3.7806595022
 H         -1.7577414770        3.7075801334        3.4647157369
 H         -0.3177260351        4.7065788270        3.2136625032
 H          0.1435627421        2.9249676250       -0.6467043505
 H          3.0359121518        3.1031520405       -0.0314035102
 H          3.3036386495        3.1390679096       -2.5484821100
 H          2.3987075219        4.5355745356       -1.9375934917
 H          1.5446578109        3.1918222723       -2.7093993577
 C          1.5847877793       -0.7787496566        0.0992137645
 C          1.1109154153       -1.2418628893        1.3372707200
 C          1.8673557016       -1.6724335058       -0.9193041477
 C          0.9080998627       -2.6075113755        1.5202532698
 C          1.2114604631       -3.4998518596        0.5109360324
 C          1.6919126959       -3.0312124231       -0.7004399367
 H          2.2241228510       -1.3132701124       -1.8709411259
 H          1.0588583671       -4.5571317703        0.6574272559
 H          1.9091180126       -3.7270869121       -1.4960319044
 H          0.5195938260       -2.9448312090        2.4687045728
 C          0.8249727363       -0.2894070449        2.4149548459
 O         -0.0161033946       -0.4441289927        3.2698890146
 H          1.4414142222        0.6261227138        2.3867168810
