  56
        -94.15052049
 C         -3.4974320863        1.2478445344        1.0066207183
 C         -4.7103032699        1.8254942023        0.2975371840
 C         -2.3474181604        2.2702958058        1.0707867325
 O         -2.2809459076        3.2466466706        0.3392316344
 O         -1.7170553102       -0.7557036404        1.9477566058
 O         -0.7555679395       -4.1038309685       -0.4072996966
 N         -3.0162821009        0.0742567701        0.2982848448
 C         -2.1760429511       -0.8340232599        0.8179054734
 C         -1.8615304405       -1.9530786931       -0.1621134315
 C         -1.0604181954       -3.0824312128        0.5050985185
 N         -3.0978030697       -2.3917140530       -0.8033321001
 N         -1.4378094886        1.9676827386        2.0066848426
 C         -0.2020774170        2.7171101001        2.1632073338
 C          0.4205074326        2.4029552207        3.5124822528
 C          0.7227887235        2.3062986212        1.0130128400
 O          1.6162545225        1.4854934189        1.1178953692
 N          0.4407266594        2.9000393559       -0.1604606819
 O          0.4010543947        0.1447653255       -1.0574742937
 O          2.6096238101        0.5455400529       -1.2930633850
 C          1.1392760943        2.4188259818       -1.3403519063
 C          1.3266559844        0.9093346768       -1.1687227703
 C          0.3218996017        2.7018507038       -2.5927511983
 H         -3.7470339145        0.9474198150        2.0326132805
 H         -4.4184358166        2.2060592369       -0.6783154575
 H         -5.1163861507        2.6512519842        0.8750936279
 H         -5.4769507024        1.0645522194        0.1772789507
 H         -0.3303517609       -3.6950008287       -1.1822501368
 H         -3.3480150323       -0.0928055639       -0.6403381959
 H         -1.2338404710       -1.5078120706       -0.9442401093
 H         -1.6508009743       -3.5443294373        1.3020509864
 H         -0.1513021290       -2.6543984250        0.9495326491
 H         -2.8640203062       -3.0860838902       -1.5074943755
 H         -3.6845466670       -2.8602701589       -0.1173341934
 H         -1.4459643942        1.0120512884        2.3740185979
 H         -0.4430816639        3.7822546291        2.0667143976
 H          1.3125413228        3.0055679451        3.6590868274
 H          0.7039777585        1.3536855601        3.5423940270
 H         -0.2867189214        2.6094614083        4.3111293900
 H         -0.4520393544        3.3778146583       -0.2683400241
 H          2.1308483212        2.8858199543       -1.3947462468
 H          0.8649504277        2.3836312498       -3.4790290248
 H          0.1197799789        3.7672377738       -2.6685663840
 H         -0.6215692005        2.1627050730       -2.5428673642
 C          2.9551300605       -0.7306081614       -0.8670420800
 C          2.2971136111       -1.8715131856       -1.3342951663
 C          3.9384364501       -0.8313768579        0.1039217854
 C          2.6259224211       -3.1112693916       -0.7827866621
 C          3.6143749980       -3.2126659273        0.1747652320
 C          4.2774656718       -2.0739685933        0.6090907036
 H          4.4060252338        0.0708155198        0.4632221552
 H          3.8642226225       -4.1768865253        0.5897734383
 H          5.0480520570       -2.1503377404        1.3609873459
 H          2.0987623120       -3.9870901672       -1.1305264788
 C          1.2833936092       -1.7826626047       -2.3916671553
 O          0.3819158246       -2.5705430238       -2.5525232343
 H          1.4339014532       -0.9507605976       -3.1041451096
