  56
        -94.15051595
 C         -4.0792305645        2.0201245070       -0.1330565151
 C         -4.6230869295        2.8340994073       -1.2953513151
 C         -2.6886437417        2.5156293361        0.2932606855
 O         -2.0576462796        3.3547793945       -0.3315870013
 O         -4.1181203072       -0.1877715261        1.6033412109
 O         -1.8528014955       -0.9051280386       -1.4512604662
 N         -3.9802190672        0.6172074795       -0.5051514097
 C         -3.9648981299       -0.3729014155        0.4025111516
 C         -3.7008638818       -1.7642141821       -0.1716011266
 C         -2.1905747106       -1.8439034149       -0.4595480910
 N         -4.0721323525       -2.8317471113        0.7326073107
 N         -2.2326964906        1.9044478255        1.3943748207
 C         -0.8936674663        2.0949926643        1.9250352693
 C         -0.8131140948        1.5227644905        3.3298017748
 C          0.1199310305        1.4108418275        0.9904652109
 O          0.6836213929        0.3609433139        1.2528595836
 N          0.3378050408        2.0726176183       -0.1468493816
 O          0.8975544125       -0.8556563918       -1.1946346719
 O          2.8401542078       -0.0090538521       -0.4239422245
 C          1.2338506138        1.5489428811       -1.1611313084
 C          1.5767018907        0.0830059574       -0.8550520599
 C          0.5842794729        1.6614363838       -2.5368199508
 H         -4.7501203735        2.0725076803        0.7328891034
 H         -5.5879996560        2.4458850862       -1.6095781330
 H         -3.9285931932        2.7954994314       -2.1311486506
 H         -4.7350184707        3.8720705709       -0.9957527085
 H         -0.8794885560       -0.9105247790       -1.5195230195
 H         -3.6086008861        0.4081604088       -1.4220587484
 H         -4.2404927679       -1.8886928510       -1.1156685893
 H         -1.9574764696       -2.8648413147       -0.7857891809
 H         -1.6359391883       -1.6442660918        0.4679082700
 H         -5.0784994187       -2.8402738517        0.8625142744
 H         -3.6614930041       -2.6492604062        1.6444540729
 H         -2.8087403790        1.1847484005        1.8256921015
 H         -0.6771050676        3.1712885110        1.9235160341
 H         -1.5564975662        1.9893814066        3.9706455425
 H          0.1759109019        1.6964099636        3.7444966231
 H         -0.9867289859        0.4497104402        3.3002269186
 H         -0.2750831749        2.8506902171       -0.3940714193
 H          2.1732840743        2.1186578760       -1.1288500643
 H         -0.3285322537        1.0713473550       -2.5672977746
 H          1.2618349582        1.2979246032       -3.3047210576
 H          0.3410832138        2.7008493059       -2.7426264673
 C          3.3565692100       -1.2372991330       -0.0417173161
 C          4.6595767000       -1.5610717377       -0.4450098338
 C          2.6320315726       -2.1053559646        0.7588728468
 C          5.2079047825       -2.7762629923       -0.0305000502
 C          4.4829173403       -3.6459077844        0.7576725120
 C          3.1973551992       -3.3060524751        1.1532827246
 H          1.6417681448       -1.8227528296        1.0767474705
 H          4.9152193393       -4.5846863821        1.0686279624
 H          2.6283300586       -3.9783975034        1.7773183183
 H          6.2126555334       -3.0088347004       -0.3503151571
 C          5.4465705758       -0.6582647816       -1.2927476433
 O          6.5636924094       -0.8792714223       -1.6866153048
 H          4.9217423728        0.2781583058       -1.5587239935
