  56
        -94.15050180
 C         -3.9550050701        2.1150096720       -0.5383149510
 C         -4.1946592048        3.2928565400       -1.4678805362
 C         -2.7681437020        2.3775554736        0.4018588641
 O         -2.0341942120        3.3481517786        0.2993609084
 O         -4.3436004153       -0.5446896573        0.2840255847
 O         -1.3268474554       -0.2944328835       -2.1920201826
 N         -3.6787481415        0.9132457464       -1.3111715402
 C         -3.8609716652       -0.3233637000       -0.8198285870
 C         -3.3840793215       -1.4533285671       -1.7314699012
 C         -1.8475961327       -1.4815022249       -1.6452465557
 N         -3.9083722956       -2.7476984176       -1.3508797317
 N         -2.6057290410        1.4108630093        1.3159512213
 C         -1.4476016095        1.3264599277        2.1896665333
 C         -1.6915169694        0.2868297161        3.2694125935
 C         -0.2291881526        0.9570019344        1.3265062075
 O          0.2197558348       -0.1743690664        1.2387599417
 N          0.2976774853        1.9879387973        0.6636023737
 O          1.2789880508       -0.4121771402       -1.2781889238
 O          2.7832936297        0.0145640600        0.3493499179
 C          1.3837088009        1.8008712475       -0.2821209226
 C          1.7237260807        0.3072310723       -0.4168390569
 C          1.0021311619        2.3874417408       -1.6379006636
 H         -4.8432477938        1.9050507769        0.0696645836
 H         -4.4414310281        4.1755542600       -0.8850943822
 H         -5.0107256251        3.0751158348       -2.1513350923
 H         -3.2928940091        3.5039870024       -2.0377057676
 H         -0.3635357306       -0.3152933006       -2.0377201160
 H         -3.0665993243        1.0061553661       -2.1109739729
 H         -3.6672678569       -1.2422356423       -2.7676246125
 H         -1.4914732921       -2.3598557623       -2.1971561465
 H         -1.5445641470       -1.5884054681       -0.5941540902
 H         -4.9152215109       -2.7628224515       -1.4765671872
 H         -3.7361214171       -2.8955485811       -0.3600535027
 H         -3.2386057643        0.6133777620        1.2985793160
 H         -1.2730593448        2.3183913981        2.6251860347
 H         -2.5918473123        0.5278572600        3.8282133400
 H         -0.8461243615        0.2545049610        3.9511415736
 H         -1.8022933074       -0.6949932190        2.8151878312
 H         -0.2364898116        2.8548387943        0.6033899454
 H          2.2770333166        2.3014054235        0.1166843130
 H          0.1235404210        1.8815241909       -2.0303165375
 H          1.8188439657        2.2659794542       -2.3441143813
 H          0.7810028358        3.4462708786       -1.5291115835
 C          3.2525829080       -1.2858604900        0.4314235818
 C          4.6408827429       -1.4807625391        0.4693129196
 C          2.3898594089       -2.3659536681        0.5264362005
 C          5.1339346279       -2.7807824384        0.5949123865
 C          4.2751652360       -3.8571488572        0.6771688275
 C          2.9045417623       -3.6456067429        0.6466503819
 H          1.3265187413       -2.1922828505        0.5225441024
 H          4.6672728379       -4.8584405555        0.7693280093
 H          2.2266578691       -4.4824685971        0.7201336942
 H          6.2054994956       -2.9105570715        0.6226742918
 C          5.5763773032       -0.3545750701        0.3739383716
 O          6.7774077939       -0.4512003200        0.3895158742
 H          5.0838996104        0.6311218189        0.2810277978
