  56
        -94.15050158
 C         -2.7413173392       -1.9651566038       -1.2654489985
 C         -3.1735250898       -1.6783694341       -2.7002554889
 C         -3.2427221261       -0.8713814591       -0.3182076872
 O         -4.0133030805        0.0076159938       -0.6724471715
 O         -1.1770227432       -4.2708998224       -0.7900686502
 O          0.0621909664       -1.6432105847        1.3963753248
 N         -1.2988162489       -2.0402146700       -1.1463752781
 C         -0.6448946093       -3.1808797420       -0.8479448809
 C          0.8408172209       -2.9793188306       -0.5200628994
 C          0.9149441662       -2.6838076953        0.9933088992
 N          1.6492853856       -4.1492792652       -0.7998941002
 N         -2.7405527665       -0.9459750259        0.9272144949
 C         -2.8971247769        0.1410850427        1.8846629700
 C         -2.6193580467       -0.3589832692        3.2897139387
 C         -1.8728637876        1.1845185395        1.4365255913
 O         -0.7618194995        1.3044861817        1.9273956020
 N         -2.2286710084        1.8863717058        0.3466224454
 O          0.1470265277        0.5722533517       -0.5232113991
 O          1.1514100046        2.4817344994        0.0997091389
 C         -1.1727690088        2.5927893851       -0.3578716665
 C          0.0953040311        1.7470046129       -0.2260452186
 C         -1.5368404782        2.7651459740       -1.8264780561
 H         -3.1326202908       -2.9387184371       -0.9446403287
 H         -4.2520876522       -1.5587796505       -2.7397500792
 H         -2.8762559896       -2.4972251330       -3.3490218402
 H         -2.7127927244       -0.7586220542       -3.0538573147
 H          0.2955476719       -0.8360330033        0.9124554576
 H         -0.7899786947       -1.1664051704       -1.1671236522
 H          1.2407247243       -2.1227787201       -1.0738647258
 H          1.9577808342       -2.4699799422        1.2575635228
 H          0.5895712285       -3.5706823327        1.5433533632
 H          1.1719449338       -4.9650944729       -0.4234985571
 H          1.7208416628       -4.2900327642       -1.8024726606
 H         -1.9628992600       -1.5717834735        1.1199520182
 H         -3.9112161846        0.5405023966        1.7810055005
 H         -1.5962421868       -0.7234454404        3.3439363212
 H         -3.3033621944       -1.1635193558        3.5446427936
 H         -2.7388017190        0.4519297868        4.0025826274
 H         -3.0785874942        1.6370186197       -0.1528759924
 H         -0.9850732157        3.5623523491        0.1197722777
 H         -0.7499881546        3.3005038129       -2.3515750126
 H         -2.4621448112        3.3288823856       -1.9122223881
 H         -1.6728739155        1.7915064110       -2.2923760384
 C          2.3472465214        1.8168286255        0.3715079923
 C          3.4759047992        2.0726819202       -0.4141190303
 C          2.4058310162        0.9294668639        1.4334863696
 C          4.6647013521        1.4063876145       -0.1091720950
 C          4.7243478293        0.5125549596        0.9407800222
 C          3.5960299893        0.2786134019        1.7135603512
 H          1.5213028972        0.7719757475        2.0326957779
 H          5.6472102870       -0.0009847065        1.1621945185
 H          3.6390560855       -0.4124109431        2.5416080614
 H          5.5282520899        1.6127144025       -0.7235405207
 C          3.4281766276        3.0139242953       -1.5411226992
 O          4.3455034676        3.2461483349       -2.2849137384
 H          2.4497715775        3.5163957034       -1.6631547899
