  56
        -94.15050110
 C         -2.6014294750       -2.0919815438       -1.3378784874
 C         -2.9290872588       -1.9115917721       -2.8169841077
 C         -3.1920980993       -0.9493512915       -0.5069557499
 O         -3.9442514049       -0.1097635189       -0.9773142506
 O         -1.0318176574       -4.3251257875       -0.6006026746
 O         -0.0196074658       -1.5415773604        1.5044880712
 N         -1.1709093894       -2.1246015068       -1.1069526012
 C         -0.5190867037       -3.2277796152       -0.6877631808
 C          0.9325438016       -2.9687079623       -0.2620230827
 C          0.8836011774       -2.5819285405        1.2316689894
 N          1.7850749728       -4.1317487015       -0.4079320030
 N         -2.7893271660       -0.9340913762        0.7761671137
 C         -3.0386361756        0.2080655882        1.6457616741
 C         -2.8659792845       -0.1960907705        3.0977626648
 C         -1.9987441647        1.2426425343        1.2133030522
 O         -0.9323317453        1.4159666466        1.7810993689
 N         -2.2784069706        1.8684074741        0.0567496155
 O          0.1720795066        0.5487400212       -0.5451558751
 O          1.1036768033        2.5083367960        0.0310140322
 C         -1.1812861130        2.5523339357       -0.6058759924
 C          0.0839298900        1.7386822070       -0.3277888020
 C         -1.4333746810        2.6330524537       -2.1055094328
 H         -2.9978715290       -3.0509371228       -0.9814133692
 H         -2.5667425970       -2.7637886409       -3.3846727349
 H         -2.4616297813       -1.0058119163       -3.1967655135
 H         -4.0037374791       -1.8223620671       -2.9447850907
 H          0.2338619177       -0.7588109185        0.9915758542
 H         -0.6792958184       -1.2416031422       -1.1451041486
 H          1.3554405614       -2.1364404511       -0.8353969991
 H          1.8982172747       -2.3257636464        1.5603607320
 H          0.5356999871       -3.4426115078        1.8088357667
 H          1.9365704716       -4.3297433859       -1.3917775872
 H          1.2978001591       -4.9359448161       -0.0194630295
 H         -2.0204762937       -1.5308950281        1.0696478336
 H         -4.0474508136        0.5788010123        1.4371160997
 H         -1.8446472683       -0.5343505018        3.2559031941
 H         -3.5549130478       -0.9973967077        3.3495674856
 H         -3.0553397275        0.6555159000        3.7450217095
 H         -3.0808623838        1.5691766469       -0.4915408056
 H         -1.0445095338        3.5510387026       -0.1731388292
 H         -1.5201731593        1.6318839557       -2.5222496195
 H         -0.6156197774        3.1511734669       -2.5997790657
 H         -2.3567247647        3.1743912110       -2.2944799795
 C          2.2807946718        1.8762184243        0.4335410414
 C          3.4608512008        2.0819981744       -0.2884972185
 C          2.2666641118        1.0690290692        1.5590834839
 C          4.6267780263        1.4481774537        0.1464194490
 C          4.6147984482        0.6341072352        1.2608994753
 C          3.4357741291        0.4491771489        1.9685212478
 H          1.3421062134        0.9478763123        2.1038901915
 H          5.5209241735        0.1445001153        1.5828261076
 H          3.4221576695       -0.1793335460        2.8459168009
 H          5.5306176499        1.6147388207       -0.4202040674
 C          3.4897624679        2.9374512168       -1.4825579979
 O          4.4558172842        3.1200328011       -2.1768017134
 H          2.5214639502        3.4234674490       -1.7081730833
