  56
        -94.15050093
 C         -2.6010907186       -2.0941801736       -1.3373855174
 C         -2.9301191992       -1.9156734184       -2.8164085694
 C         -3.1918096925       -0.9510819604       -0.5071693702
 O         -3.9443716490       -0.1119935024       -0.9777323570
 O         -1.0299789170       -4.3253706793       -0.5987007043
 O         -0.0182065787       -1.5402787907        1.5036747465
 N         -1.1703616658       -2.1255196095       -1.1073928448
 C         -0.5177757266       -3.2278791856       -0.6872477391
 C          0.9339428456       -2.9678711074       -0.2623833516
 C          0.8859106298       -2.5798377038        1.2310050665
 N          1.7867788012       -4.1307765992       -0.4075807893
 N         -2.7884670777       -0.9348996241        0.7756924937
 C         -3.0385849493        0.2070027829        1.6453542053
 C         -2.8656867386       -0.1972063195        3.0973117288
 C         -1.9993017031        1.2422409296        1.2129882753
 O         -0.9332677425        1.4166376008        1.7811289292
 N         -2.2790364163        1.8673526320        0.0560976029
 O          0.1719567928        0.5488928361       -0.5451391046
 O          1.1026686263        2.5090216501        0.0305095262
 C         -1.1822711425        2.5518231321       -0.6065326529
 C          0.0833174706        1.7388669857       -0.3280642169
 C         -1.4342359569        2.6320353998       -2.1062232393
 H         -2.9965607290       -3.0530338082       -0.9795300998
 H         -2.4643299720       -1.0096239030       -3.1975939040
 H         -4.0050081141       -1.8281798888       -2.9434525461
 H         -2.5670469330       -2.7679888316       -3.3834535811
 H          0.2338379289       -0.7577571740        0.9896587929
 H         -0.6794624101       -1.2421756514       -1.1465167281
 H          1.3562853246       -2.1359789209       -0.8366439212
 H          1.9005180933       -2.3224175486        1.5588818235
 H          0.5391823883       -3.4405064791        1.8088857324
 H          1.9384963690       -4.3291864460       -1.3913275657
 H          1.2994678877       -4.9348514934       -0.0188349781
 H         -2.0200278374       -1.5318327345        1.0698203807
 H         -4.0476321669        0.5771024877        1.4366797608
 H         -3.5542745612       -0.9988547566        3.3489985004
 H         -3.0553474483        0.6541928014        3.7447657356
 H         -1.8441968032       -0.5350739870        3.2553007686
 H         -3.0813851044        1.5678845569       -0.4921735655
 H         -1.0461063947        3.5507248012       -0.1740544151
 H         -2.3580253493        3.1725626270       -2.2954716803
 H         -1.5201143564        1.6306819280       -2.5227466759
 H         -0.6168451820        3.1507634182       -2.6004837048
 C          2.2799707854        1.8776119993        0.4337320169
 C          3.4599813810        2.0827684187       -0.2885559969
 C          2.2660214492        1.0720714779        1.5604543853
 C          4.6262201613        1.4503746575        0.1476358584
 C          4.6145211348        0.6381693313        1.2634832510
 C          3.4354195932        0.4535460914        1.9710845904
 H          1.3413450509        0.9509813533        2.1050818789
 H          5.5208570021        0.1495335849        1.5863059868
 H          3.4219192827       -0.1738141102        2.8493059919
 H          5.5299985690        1.6162999641       -0.4192792453
 C          3.4885538582        2.9359205468       -1.4842690205
 O          4.4546518208        3.1178035768       -2.1786637910
 H          2.5198976007        3.4206275778       -1.7112093279
