  56
        -94.15049545
 C         -2.6047205640       -2.0724986676       -1.3453977759
 C         -2.9219323844       -1.8796139410       -2.8252084375
 C         -3.1932326094       -0.9316233155       -0.5102799362
 O         -3.9405289980       -0.0866155820       -0.9786656826
 O         -1.0542395516       -4.3195051570       -0.6075334393
 O         -0.0343475834       -1.5476870288        1.5120120514
 N         -1.1758883206       -2.1161645927       -1.1063821301
 C         -0.5338318787       -3.2252325924       -0.6878648187
 C          0.9170763327       -2.9774137018       -0.2528299755
 C          0.8619477155       -2.5945847545        1.2416012232
 N          1.7624620274       -4.1459087931       -0.3967090095
 N         -2.7946755898       -0.9249190648        0.7742256752
 C         -3.0396037239        0.2144277800        1.6487957255
 C         -2.8712234911       -0.1973611318        3.0991235791
 C         -1.9936565678        1.2452645073        1.2219787771
 O         -0.9253852668        1.4085294210        1.7893129725
 N         -2.2710626613        1.8797743955        0.0696109708
 O          0.1728155154        0.5496743021       -0.5408102291
 O          1.1150516346        2.5024620452        0.0412971727
 C         -1.1705203062        2.5607958275       -0.5900553156
 C          0.0906318113        1.7389597263       -0.3179317965
 C         -1.4230271648        2.6509884947       -2.0891018212
 H         -3.0097464052       -3.0311387141       -0.9978591770
 H         -3.9948827517       -1.7791071806       -2.9587432788
 H         -2.5643856041       -2.7315289768       -3.3963490203
 H         -2.4433804847       -0.9760084700       -3.1963183719
 H          0.2273497929       -0.7655274696        1.0024587660
 H         -0.6781767442       -1.2363623252       -1.1395610863
 H          1.3491734218       -2.1464994358       -0.8213242345
 H          1.8765663895       -2.3479457311        1.5774096071
 H          0.5032867924       -3.4540022432        1.8140709860
 H          1.9185145314       -4.3424233992       -1.3801309944
 H          1.2673067047       -4.9477250253       -0.0133071385
 H         -2.0294110006       -1.5267657101        1.0668835802
 H         -4.0461491877        0.5914332471        1.4404526640
 H         -1.8520240692       -0.5420589961        3.2570513465
 H         -3.5650074638       -0.9959330716        3.3462754721
 H         -3.0567598017        0.6523104750        3.7500202300
 H         -3.0748314875        1.5870888724       -0.4803242569
 H         -1.0277262914        3.5563849488       -0.1521101938
 H         -0.6027253454        3.1672044257       -2.5811484018
 H         -2.3434949757        3.1984168025       -2.2745412056
 H         -1.5156889154        1.6525497289       -2.5110854449
 C          2.2924704296        1.8631033113        0.4306989349
 C          3.4683034676        2.0724158475       -0.2972503310
 C          2.2831719872        1.0442477454        1.5478057412
 C          4.6347510183        1.4293681844        0.1223399710
 C          4.6273124905        0.6030688952        1.2278317022
 C          3.4527169801        0.4154049402        1.9420823797
 H          1.3620992044        0.9214098567        2.0981860959
 H          5.5336242495        0.1060779306        1.5376815586
 H          3.4431136673       -0.2223993831        2.8128010404
 H          5.5352132042        1.5986554260       -0.4488449602
 C          3.4921032724        2.9413148858       -1.4817205753
 O          4.4533706292        3.1264839521       -2.1818822788
 H          2.5247296400        3.4352894474       -1.6935690803
