  56
        -94.15049905
 C         -2.6370186617       -2.0485241219       -1.3384290718
 C         -2.9565050847       -1.8497604316       -2.8170078324
 C         -3.2071425637       -0.9000468991       -0.5009780640
 O         -3.9508715886       -0.0496185990       -0.9653501539
 O         -1.1232679622       -4.3156376970       -0.5905094982
 O         -0.0372279554       -1.5448718461        1.4985876587
 N         -1.2081976641       -2.1143227079       -1.1050683515
 C         -0.5834452647       -3.2317317188       -0.6821893524
 C          0.8750943137       -3.0078942817       -0.2599745445
 C          0.8400388109       -2.6083981152        1.2307720848
 N          1.6957592574       -4.1945676187       -0.3981449281
 N         -2.7975694151       -0.8933277483        0.7799325842
 C         -3.0249040093        0.2505985346        1.6532359935
 C         -2.8490139376       -0.1590551217        3.1033002000
 C         -1.9720372679        1.2700239875        1.2161261539
 O         -0.9007637515        1.4279947278        1.7791689073
 N         -2.2474231632        1.8989963384        0.0603293763
 O          0.1831432268        0.5424054455       -0.5493094485
 O          1.1421245313        2.4908422662        0.0214221728
 C         -1.1431812908        2.5644973416       -0.6091173513
 C          0.1114871897        1.7336797282       -0.3331497971
 C         -1.4007578967        2.6435000171       -2.1079213879
 H         -3.0550279924       -3.0012809058       -0.9900712396
 H         -4.0280536219       -1.7304701244       -2.9462304495
 H         -2.6160755884       -2.7073841568       -3.3900445408
 H         -2.4637889612       -0.9544155674       -3.1896907956
 H          0.2328681270       -0.7714736373        0.9798784828
 H         -0.6959865672       -1.2432166298       -1.1459489354
 H          1.3190136121       -2.1919419699       -0.8409072508
 H          1.8614876426       -2.3742073723        1.5546082478
 H          0.4735400058       -3.4561322593        1.8155614946
 H          1.1878666293       -4.9822362338       -0.0022686585
 H          1.8397069732       -4.4046100183       -1.3806180843
 H         -2.0358974849       -1.5017617997        1.0682817428
 H         -4.0293355466        0.6367456372        1.4516057656
 H         -3.5489214455       -0.9497338037        3.3584035080
 H         -3.0202143841        0.6942611140        3.7533455127
 H         -1.8321540644       -0.5138893639        3.2537832428
 H         -3.0578921777        1.6129975141       -0.4831981735
 H         -0.9900457235        3.5627282789       -0.1807382801
 H         -1.5037033544        1.6421965803       -2.5206250056
 H         -0.5779903815        3.1481696374       -2.6077362914
 H         -2.3172134238        3.1971875704       -2.2947066878
 C          2.3122453371        1.8469096585        0.4246226119
 C          3.4962462853        2.0470362249       -0.2926406898
 C          2.2887482387        1.0356132384        1.5470955481
 C          4.6561928236        1.4033729666        0.1437729216
 C          4.6347060068        0.5850304538        1.2549715322
 C          3.4519796735        0.4057334649        1.9578484658
 H          1.3619203829        0.9198818091        2.0891695676
 H          5.5363245070        0.0880680302        1.5782678776
 H          3.4309357788       -0.2259087959        2.8328369819
 H          5.5631624984        1.5660364903       -0.4189520769
 C          3.5355050721        2.9070479853       -1.4830896580
 O          4.5056929987        3.0863887943       -2.1724556562
 H          2.5712132055        3.3998701137       -1.7109505092
