  56
        -94.15049409
 C         -2.8086495789       -1.9281062536       -1.2286815396
 C         -3.2625894711       -1.6453059720       -2.6575091771
 C         -3.2715165541       -0.8179975496       -0.2811087084
 O         -4.0269784157        0.0763376523       -0.6293407554
 O         -1.2823196543       -4.2612364847       -0.7743457166
 O          0.0427246045       -1.6518162698        1.3822560116
 N         -1.3657431693       -2.0296450608       -1.1350050542
 C         -0.7294372426       -3.1823348257       -0.8440186943
 C          0.7649238860       -3.0097484909       -0.5406092619
 C          0.8683370757       -2.7107098257        0.9703974727
 N          1.5451321472       -4.1966633744       -0.8289503330
 N         -2.7528495606       -0.8970122747        0.9573209076
 C         -2.8721646475        0.1982148362        1.9107491090
 C         -2.5860813592       -0.3003846397        3.3146671968
 C         -1.8316821668        1.2168485489        1.4435765249
 O         -0.7125672056        1.3164289782        1.9206632948
 N         -2.1848903285        1.9192119751        0.3534426141
 O          0.1607883810        0.5577716337       -0.5319750808
 O          1.2014973036        2.4536273181        0.0769627185
 C         -1.1227282140        2.6014344407       -0.3653300269
 C          0.1314751792        1.7340854202       -0.2376257926
 C         -1.4961218556        2.7697364966       -1.8320458344
 H         -3.2117733226       -2.8917076466       -0.8927234224
 H         -4.3396481933       -1.5085288001       -2.6779535522
 H         -2.9908866882       -2.4741333804       -3.3048328210
 H         -2.7938826297       -0.7360012676       -3.0271390486
 H          0.2845934341       -0.8518925020        0.8902542389
 H         -0.8401549963       -1.1661228386       -1.1663067842
 H          1.1731672732       -2.1631929629       -1.1035646841
 H          1.9191384808       -2.5166356770        1.2176982517
 H          0.5340896694       -3.5890451813        1.5287563717
 H          1.5983052519       -4.3419972461       -1.8320186327
 H          1.0575046999       -5.0015254033       -0.4423203523
 H         -1.9863656509       -1.5387236016        1.1422996143
 H         -3.8785953248        0.6192806295        1.8186941010
 H         -2.6779857625        0.5167344661        4.0245207832
 H         -1.5704749025       -0.6867676948        3.3571031294
 H         -3.2838645039       -1.0884068430        3.5834185471
 H         -3.0465764319        1.6873578300       -0.1340640978
 H         -0.9137291260        3.5709707370        0.1034714826
 H         -2.4105163028        3.3514979967       -1.9144775697
 H         -1.6556810524        1.7954949331       -2.2891073454
 H         -0.7031058611        3.2848687010       -2.3680000165
 C          2.3903241617        1.7762984855        0.3461882151
 C          3.5256234950        2.0392177392       -0.4277546766
 C          2.4387070088        0.8733895184        1.3955513818
 C          4.7091012432        1.3620607971       -0.1261446662
 C          4.7576570734        0.4509864573        0.9094363833
 C          3.6236720675        0.2116866135        1.6721688132
 H          1.5512785919        0.7137060623        1.9897367688
 H          5.6764112259       -0.0710242431        1.1281270155
 H          3.6582633839       -0.4916723783        2.4901733945
 H          5.5776494596        1.5742691255       -0.7314051985
 C          3.4910365466        3.0007794820       -1.5378949001
 O          4.4154732930        3.2424218853       -2.2698606911
 H          2.5160394508        3.5101100951       -1.6582787920
