  56
        -94.15045574
 C         -2.2783171567       -2.1563703627       -1.4978352694
 C         -2.5179901410       -2.1975068444       -2.9975427651
 C         -2.9125173065       -0.9066117438       -0.8641681196
 O         -3.4117184248       -0.0086734970       -1.5271944278
 O         -1.0071751210       -3.0418237665        0.8461275417
 O          1.2258007221       -4.7872815686        0.9896185028
 N         -0.8545158289       -2.1491288438       -1.2182196134
 C         -0.3285854358       -2.5820372921       -0.0706745298
 C          1.1859604055       -2.5527925334        0.0065657439
 C          1.6481797276       -4.0220597501       -0.0996099239
 N          1.7416250511       -1.7538802322       -1.0742576454
 N         -2.8431361143       -0.9062483526        0.4713308385
 C         -3.2433448066        0.2212244457        1.3001273751
 C         -3.3442660251       -0.2213061758        2.7490400958
 C         -2.1889172712        1.3275685060        1.1258345293
 O         -1.3183205407        1.5715829984        1.9366495833
 N         -2.3162767339        2.0018753354       -0.0366798551
 O          0.1903790657        0.9589721826       -0.7540274209
 O          1.0800393850        2.9075336390       -0.0669948109
 C         -1.2462967264        2.8850388509       -0.4423662064
 C          0.0703233693        2.1119889466       -0.4303238884
 C         -1.5078193219        3.4228173043       -1.8444160423
 H         -2.7023493531       -3.0419230859       -1.0066852377
 H         -2.0399004430       -3.0704689941       -3.4337507903
 H         -2.1190052526       -1.2976563369       -3.4594108323
 H         -3.5848995314       -2.2360734752       -3.1977006227
 H          0.3293406335       -4.5002963712        1.2308953245
 H         -0.2214586463       -1.7370947129       -1.8896959330
 H          1.4582024867       -2.1947580940        1.0139464501
 H          2.7418303245       -4.0637784268       -0.1133882334
 H          1.2752510645       -4.4413645257       -1.0487344233
 H          2.7540328879       -1.8144653563       -1.0599300829
 H          1.4911168423       -0.7782218255       -0.9342582986
 H         -2.3454488190       -1.6653436910        0.9325963901
 H         -4.2047391457        0.5943327831        0.9255684629
 H         -3.6909970784        0.6041429662        3.3644294121
 H         -2.3628110833       -0.5248219932        3.1056792260
 H         -4.0361077093       -1.0539814445        2.8440679610
 H         -2.8913033714        1.5789781372       -0.7667906715
 H         -1.1580770501        3.7039298484        0.2816570655
 H         -1.5666524714        2.5980540965       -2.5514491295
 H         -0.7102137488        4.0964965518       -2.1464827346
 H         -2.4501770527        3.9638889667       -1.8562427258
 C          2.3749284076        2.3978628506       -0.0443507893
 C          2.7304571470        1.3091580406        0.7560996075
 C          3.3164114161        3.0155491548       -0.8537298534
 C          4.0464425351        0.8457189281        0.7006248827
 C          4.9850081870        1.4594241604       -0.1032827312
 C          4.6207001753        2.5534530300       -0.8738356180
 H          3.0138181761        3.8552177657       -1.4600747189
 H          5.9992843570        1.0919957881       -0.1295545370
 H          5.3498649783        3.0438093919       -1.5003841383
 H          4.3048178934       -0.0017877861        1.3185010028
 C          1.7850771546        0.6507555495        1.6813232712
 O          1.9882027801       -0.4372253003        2.1608124479
 H          0.8782746119        1.2245365917        1.9274826391
