  56
        -94.15044892
 C         -2.6836496853        0.8471184832       -1.9879019529
 C         -2.5204088205        1.0097336681       -3.4889559271
 C         -2.1674102308        2.0775327057       -1.2244104496
 O         -1.5145662892        2.9646220890       -1.7460905176
 O         -3.2216548103       -0.7024400221        0.2634214253
 O         -2.2160668879       -2.2936743141        2.2329930828
 N         -1.9123238633       -0.2956804971       -1.5185953096
 C         -2.2200484567       -0.9616558904       -0.4020499090
 C         -1.2595578312       -2.0757781720       -0.0055393201
 C         -1.0440136958       -1.9968864889        1.5261038758
 N         -1.8276427604       -3.3417245915       -0.4460519307
 N         -2.4703267095        2.0403330118        0.0844591308
 C         -1.7781350493        2.8673856384        1.0633521762
 C         -2.4465044857        2.7356771916        2.4195822321
 C         -0.3334378629        2.3406180786        1.0876244296
 O          0.0389283403        1.4442721977        1.8217010955
 N          0.4699676064        2.9179226289        0.1728036022
 O          0.8161423140        0.2167749880       -0.7439580268
 O          2.5443123302        0.2393268881        0.6978936496
 C          1.7752572436        2.3304702130       -0.0735559682
 C          1.6310507740        0.8124463500       -0.0861917190
 C          2.3189094906        2.7915404557       -1.4190520081
 H         -3.7298141354        0.6647253390       -1.7173513874
 H         -2.8213398432        0.1005866831       -4.0022412932
 H         -1.4822640888        1.2319040315       -3.7239182270
 H         -3.1316319979        1.8375557112       -3.8369559193
 H         -2.9112180145       -1.7189298930        1.8653949213
 H         -0.9914801900       -0.4114055710       -1.9153242169
 H         -0.2988995530       -1.9301475835       -0.5073460542
 H         -0.6603793576       -0.9977735293        1.7816441936
 H         -0.3014826261       -2.7425269664        1.8271147917
 H         -2.7120860843       -3.4870374323        0.0348499170
 H         -1.2125433727       -4.1011304359       -0.1697141698
 H         -2.9431187014        1.2150348515        0.4427985171
 H         -1.7870958635        3.9031981309        0.7070645121
 H         -3.5057666235        2.9665928949        2.3435070117
 H         -1.9832685743        3.4164671459        3.1284238607
 H         -2.3228832064        1.7198420584        2.7883478761
 H          0.0287635348        3.4091958109       -0.6003489794
 H          2.4547367891        2.5973318804        0.7442850865
 H          2.5013189368        3.8627369729       -1.3994286329
 H          1.5967141331        2.5645073244       -2.2001571461
 H          3.2455432671        2.2707452213       -1.6440113889
 C          2.5717305633       -1.1388905027        0.7924919327
 C          2.7585415558       -1.9514557491       -0.3340875699
 C          2.4001135261       -1.7001283439        2.0485263621
 C          2.7300775295       -3.3373279708       -0.1643695046
 C          2.5651156757       -3.8958829239        1.0868318972
 C          2.4114897318       -3.0756869299        2.1958441174
 H          2.2463710973       -1.0442061281        2.8903396320
 H          2.5552397171       -4.9689670295        1.2019999413
 H          2.2838143771       -3.5084471150        3.1762559722
 H          2.8594068214       -3.9698929231       -1.0305568122
 C          3.0295388998       -1.3972866197       -1.6677661760
 O          3.4075937281       -0.2805028366       -1.9124860667
 H          2.8823593507       -2.1373099134       -2.4796944042
