  56
        -94.15042780
 C          1.3819322636       -2.8440289951        0.2211597519
 C          1.9982630958       -4.2347114013        0.1445593525
 C         -0.1300303820       -2.9524593014       -0.0394190948
 O         -0.5698728816       -3.3672466736       -1.0898347685
 O          0.4335462397       -0.3396036374       -0.7198060116
 O          3.6013682947        1.1855970296       -0.5706896823
 N          1.9728655775       -1.9938147604       -0.7913632962
 C          1.4653266059       -0.8262416504       -1.1731040003
 C          2.3132275655       -0.0794947897       -2.2036216717
 C          2.6677149696        1.3061171272       -1.6112881557
 N          3.5052564638       -0.8468124041       -2.5368174738
 N         -0.9066798191       -2.5989966732        1.0043113064
 C         -2.3493257439       -2.7050960077        0.9813360326
 C         -2.8668972763       -3.2640229113        2.3005545338
 C         -3.0552252401       -1.3757502721        0.6456836527
 O         -4.1598626014       -1.1105389303        1.0743645746
 N         -2.3697052119       -0.5817073089       -0.1904396730
 O         -1.6747617307        2.5642951601       -1.4704141019
 O         -1.3261689720        1.7402878356        0.5981391889
 C         -2.9328207753        0.6362232030       -0.7252724800
 C         -1.9196774391        1.7651080754       -0.6125094786
 C         -3.3683863160        0.4582862373       -2.1780506765
 H          1.5677809322       -2.3943541610        1.2052674561
 H          1.5998153636       -4.8636544103        0.9365473988
 H          3.0786792405       -4.1766713357        0.2537417116
 H          1.7539292331       -4.6863400774       -0.8141743220
 H          3.1861991934        0.7528218343        0.1940268918
 H          2.7879993135       -2.3086804714       -1.3047825992
 H          1.6895307822        0.0641552077       -3.0909087431
 H          1.7485520315        1.8076095070       -1.2862391085
 H          3.1518281562        1.9199983062       -2.3762165526
 H          4.2325574595       -0.5921896280       -1.8694639595
 H          3.8452444016       -0.5910956219       -3.4565852899
 H         -0.4897928740       -2.2005052272        1.8308625912
 H         -2.5911055232       -3.3890827066        0.1565858534
 H         -2.5489136701       -2.6318796877        3.1275295923
 H         -2.5002848210       -4.2744509537        2.4613140703
 H         -3.9525201746       -3.2717734983        2.2802980621
 H         -1.4322115000       -0.8158044386       -0.4957318015
 H         -3.8008594362        0.8804402705       -0.0959161261
 H         -2.5221900102        0.1332695962       -2.7781261820
 H         -3.7338992136        1.4011029603       -2.5738890048
 H         -4.1545624175       -0.2888381454       -2.2359839121
 C         -0.2811971193        2.6058178666        0.8521045473
 C          0.9137180857        2.0596174644        1.3425883763
 C         -0.3787641436        3.9676884501        0.6139681915
 C          2.0013321445        2.9034643164        1.5738610125
 C          1.9001108042        4.2593613371        1.3362377584
 C          0.7101237855        4.7880759710        0.8607569132
 H         -1.2983329983        4.3790522463        0.2298345890
 H          2.7463255445        4.9034865737        1.5177144601
 H          0.6258214735        5.8476997981        0.6735744044
 H          2.9173860132        2.4727533435        1.9492454660
 C          1.0246982317        0.6248934848        1.6084715947
 O          2.0722998963        0.0170193028        1.6600577562
 H          0.0615436663        0.1263553531        1.7994743487
