  56
        -94.15042764
 C          1.3837083416       -2.8450325539        0.2125753802
 C          1.9980917845       -4.2361050035        0.1274327407
 C         -0.1290311152       -2.9510677613       -0.0443989855
 O         -0.5721562682       -3.3625093456       -1.0947401428
 O          0.4352425927       -0.3356672113       -0.7185530950
 O          3.6005889334        1.1870478633       -0.5564307284
 N          1.9733318405       -1.9907995452       -0.7973097864
 C          1.4671135528       -0.8208595598       -1.1732506005
 C          2.3166654767       -0.0695049306       -2.1991708067
 C          2.6705194544        1.3131381124       -1.5996003114
 N          3.5090729316       -0.8355652763       -2.5339924611
 N         -0.9024527279       -2.6001524075        1.0026345621
 C         -2.3451883758       -2.7059019480        0.9836685936
 C         -2.8594597577       -3.2589597201        2.3066212677
 C         -3.0527263321       -1.3785106395        0.6433856570
 O         -4.1595425682       -1.1154619269        1.0678589973
 N         -2.3662207173       -0.5841684528       -0.1914853290
 O         -1.6757898879        2.5624769855       -1.4746662661
 O         -1.3296126799        1.7390020935        0.5946694504
 C         -2.9303341686        0.6308288871       -0.7318018859
 C         -1.9204310650        1.7625537376       -0.6172845770
 C         -3.3589035583        0.4474265820       -2.1859776530
 H          1.5724970500       -2.4004270274        1.1984740129
 H          1.5988068065       -4.8693010687        0.9156144062
 H          3.0786350868       -4.1803990161        0.2366880989
 H          1.7527632552       -4.6814428974       -0.8339959813
 H          3.1820514080        0.7528558642        0.2056450495
 H          2.7901964523       -2.3022878383       -1.3101373242
 H          1.6944076935        0.0785484874       -3.0867360156
 H          1.7507929652        1.8141228389       -1.2754420108
 H          3.1578249429        1.9299020714       -2.3602088657
 H          4.2356138090       -0.5834955178       -1.8647675001
 H          3.8500443631       -0.5764965452       -3.4525335765
 H         -0.4828155888       -2.2034179101        1.8286471804
 H         -2.5893891905       -3.3934347554        0.1625654208
 H         -2.4931282303       -4.2689616493        2.4707042285
 H         -3.9451476887       -3.2660603594        2.2892373040
 H         -2.5388217795       -2.6235973158        3.1301129789
 H         -1.4271288382       -0.8164271997       -0.4933265154
 H         -3.8017516935        0.8746048301       -0.1069774771
 H         -2.5099330099        0.1189636050       -2.7803146375
 H         -3.7214789428        1.3889880764       -2.5875414047
 H         -4.1454391907       -0.2993157580       -2.2448198666
 C         -0.2853514890        2.6043322269        0.8516469378
 C          0.9069362009        2.0574859224        1.3479036608
 C         -0.3805179353        3.9660461172        0.6115845125
 C          1.9939742047        2.9006135887        1.5842521813
 C          1.8948909607        4.2564958121        1.3454580540
 C          0.7078846222        4.7856977879        0.8631490864
 H         -1.2977184978        4.3778975575        0.2223758303
 H          2.7405332976        4.9001463716        1.5312509592
 H          0.6254231923        5.8452503617        0.6746564225
 H          2.9078014544        2.4693627897        1.9644135701
 C          1.0160997904        0.6225099024        1.6134299514
 O          2.0631595980        0.0139353564        1.6677771093
 H          0.0520615308        0.1245337467        1.8014184761
