  56
        -94.15342998
 C          2.5667804361       -1.0209205772       -0.3714220330
 C          3.9306444959       -1.4250639547       -0.9298616549
 C          1.5626217520       -2.1526295356       -0.6107635998
 O          1.1779272327       -2.4148713055       -1.7414252140
 O          1.9478249546        1.5177870628        0.7412090234
 O          2.2060602910        4.1278896994       -0.1024757732
 N          2.0580042426        0.1473730129       -1.0525549697
 C          1.7320666279        1.2854524619       -0.4476281138
 C          1.1116119760        2.3461675948       -1.3508213746
 C          2.0863222373        3.5418003488       -1.3657382974
 N          0.8836788064        1.8181059657       -2.6841420200
 N          1.1764498792       -2.8279256914        0.4794085428
 C          0.1674251575       -3.8751099359        0.4267420365
 C          0.3396673559       -4.8202984178        1.6038235437
 C         -1.2284332126       -3.2180465135        0.4454625219
 O         -2.0092157477       -3.3272391993        1.3617614794
 N         -1.4707984457       -2.5147794312       -0.6816414781
 O         -1.5913781660        0.4453512217       -1.5746820868
 O         -2.1241164553        0.2117586122        0.5934717849
 C         -2.6027021969       -1.6212860706       -0.8064278620
 C         -2.0597278997       -0.1986141007       -0.6700089770
 C         -3.3005320068       -1.8070313491       -2.1476007425
 H          2.6364677637       -0.7706634430        0.6906244638
 H          4.3170744470       -2.2823924159       -0.3849906180
 H          4.6315273964       -0.5995973043       -0.8364787040
 H          3.8300510029       -1.6914618924       -1.9794362440
 H          2.2919865254        3.4029946168        0.5422802788
 H          1.8316760874        0.0642710632       -2.0374279208
 H          0.1898697060        2.6918902889       -0.8510216551
 H          1.7101748738        4.3180741011       -2.0395925517
 H          3.0631380374        3.1993803939       -1.7420238244
 H          0.7277553463        2.5781521293       -3.3375407763
 H          0.0373235018        1.2542791664       -2.6731483596
 H          1.3061401981       -2.4006968782        1.3861491439
 H          0.2982459567       -4.3993520308       -0.5268736560
 H         -0.3730120140       -5.6359840515        1.5253258280
 H          0.1421008615       -4.2882188429        2.5310319559
 H          1.3479771840       -5.2256663059        1.6230000087
 H         -0.7467478557       -2.4521868724       -1.3908039763
 H         -3.2652590005       -1.8345661409        0.0387883432
 H         -4.1845974694       -1.1774969833       -2.2034971982
 H         -3.5968118346       -2.8452683185       -2.2667227483
 H         -2.6245565331       -1.5325463561       -2.9540805809
 C         -1.7059449963        1.4943861945        0.9242285598
 C         -0.6254597796        1.6737705348        1.7964510405
 C         -2.4064164697        2.5862217469        0.4338622713
 C         -0.2906768713        2.9734850885        2.1783321194
 C         -0.9826544771        4.0614403698        1.6852868080
 C         -2.0386799469        3.8673056045        0.8081229067
 H         -3.2308021690        2.4220337366       -0.2438276440
 H         -0.6938084470        5.0600259322        1.9725023333
 H         -2.5791503500        4.7132582112        0.4116804449
 H          0.5475830477        3.1164934014        2.8423723810
 C          0.2171211882        0.5579760698        2.2502835495
 O          0.1853283464       -0.5755648706        1.8362588635
 H          0.9211874834        0.8498208379        3.0495997937
