  56
        -94.15042146
 C          1.8649485675       -0.3483869562        1.7475691184
 C          2.9601687296       -0.5420927505        2.8000006654
 C          1.5073166773       -1.7069581012        1.1453904200
 O          2.1500455526       -2.1922028904        0.2270386678
 O          0.8932988535        2.2165198099        1.0479200081
 O          0.8346497231        4.2620376167       -0.7085122497
 N          2.3225023230        0.5038253497        0.6760345499
 C          1.7220201056        1.6518082123        0.3481480764
 C          2.1926364910        2.2399246115       -0.9859237339
 C          2.1290899879        3.7829465392       -0.9315161993
 N          3.5021839498        1.7166571032       -1.3400797238
 N          0.4801721369       -2.3413058132        1.7346825922
 C         -0.0303520931       -3.6124724181        1.2322803305
 C         -0.7874074144       -4.3422571302        2.3274316456
 C         -0.9439464054       -3.2604849423        0.0466934556
 O         -2.1524286856       -3.1989533044        0.1361425942
 N         -0.2603261314       -2.9526365035       -1.0815434311
 O          0.1215407408       -0.2185725240       -1.0772167241
 O         -2.0363728297       -0.0763656556       -1.6691626705
 C         -0.8965743470       -2.1391961590       -2.1029458164
 C         -0.8607154551       -0.7060517671       -1.5726217074
 C         -0.1358595364       -2.2407796146       -3.4177629444
 H          0.9850841657        0.1252917004        2.1941322093
 H          3.2519658943        0.4218259183        3.2081627849
 H          3.8290486723       -1.0131193038        2.3458230249
 H          2.5970912106       -1.1726724116        3.6072092309
 H          0.5095140648        3.7759888337        0.0730779447
 H          2.8957254063        0.0649407253       -0.0350731043
 H          1.4707561194        1.8873573416       -1.7331652818
 H          2.4624093511        4.2009899001       -1.8881923652
 H          2.8169173916        4.1341210473       -0.1426669513
 H          4.2055709197        2.0969214579       -0.7136965867
 H          3.7478714060        1.9966910329       -2.2832509337
 H         -0.1320957405       -1.8219866432        2.3531618629
 H          0.8286658091       -4.1921608319        0.8783585686
 H         -1.6762198150       -3.7764637277        2.5965382193
 H         -0.1580288253       -4.4676270375        3.2044026495
 H         -1.1008419683       -5.3190184157        1.9699700791
 H          0.7476352601       -2.8334367341       -0.9935515109
 H         -1.9361286021       -2.4631148218       -2.2065146999
 H         -0.6302842077       -1.6507977393       -4.1848589514
 H         -0.0956180655       -3.2779928506       -3.7391413943
 H          0.8783654525       -1.8709190844       -3.2828042988
 C         -2.1286613472        1.1512378071       -1.0033281304
 C         -2.0268863940        1.1902615951        0.3928517490
 C         -2.2661414534        2.3146934603       -1.7362803698
 C         -2.0378072821        2.4288098068        1.0321320060
 C         -2.1860464609        3.5911913415        0.3013811719
 C         -2.3091059966        3.5336275616       -1.0779777137
 H         -2.3248875145        2.2589763717       -2.8122583187
 H         -2.1892620926        4.5467858486        0.8014095351
 H         -2.4096289367        4.4425564596       -1.6496704526
 H         -1.9263676915        2.4483112391        2.1048094913
 C         -1.9039142728       -0.0506907667        1.1605402088
 O         -1.3970027462       -0.1542413755        2.2531882873
 H         -2.3305867145       -0.9384956043        0.6581819531
