  56
        -94.15042047
 C          1.8690660551       -0.3450061395        1.7431090830
 C          2.9688641706       -0.5357277039        2.7912863327
 C          1.5119519755       -1.7048433082        1.1435245270
 O          2.1536750885       -2.1906191110        0.2247312884
 O          0.8933209434        2.2196639384        1.0496703071
 O          0.8298976641        4.2693224750       -0.7019008550
 N          2.3205980076        0.5073694226        0.6691140290
 C          1.7183868984        1.6554908178        0.3451114633
 C          2.1814965798        2.2447984131       -0.9910675250
 C          2.1218683422        3.7879108687       -0.9336371160
 N          3.4874865188        1.7194496662       -1.3549186790
 N          0.4861067621       -2.3391235606        1.7351255067
 C         -0.0246887683       -3.6113040542        1.2356172751
 C         -0.7801443455       -4.3389786168        2.3332904077
 C         -0.9399402488       -3.2622608132        0.0503900014
 O         -2.1484377953       -3.2025014401        0.1407288684
 N         -0.2576881325       -2.9546798181       -1.0787277778
 O          0.1202818012       -0.2201834977       -1.0767526468
 O         -2.0385062278       -0.0817475054       -1.6659859806
 C         -0.8955564209       -2.1429419381       -2.1004517694
 C         -0.8617308835       -0.7095317084       -1.5708385984
 C         -0.1346241378       -2.2437535869       -3.4151948586
 H          0.9900584092        0.1272531822        2.1928783966
 H          3.8367960226       -1.0055652483        2.3340785633
 H          2.6101423894       -1.1662089603        3.6005128298
 H          3.2603935219        0.4291580203        3.1973408877
 H          0.5083252693        3.7824111671        0.0806481244
 H          2.8902334404        0.0688999779       -0.0451240428
 H          1.4538865495        1.8951941801       -1.7341152080
 H          2.4503617143        4.2071332180       -1.8914970719
 H          2.8151411714        4.1359912772       -0.1482042739
 H          4.1961445512        2.0982920775       -0.7336457164
 H          3.7267217728        1.9991780537       -2.2998349973
 H         -0.1257751173       -1.8190463497        2.3534150218
 H          0.8339933784       -4.1915589112        0.8818154466
 H         -1.0941667932       -5.3163947284        1.9781635837
 H         -1.6685298530       -3.7726164073        2.6026125724
 H         -0.1495044788       -4.4626727432        3.2095941164
 H          0.7502852014       -2.8346501876       -0.9919174665
 H         -1.9345673753       -2.4686559508       -2.2037439182
 H         -0.6301138684       -1.6550312400       -4.1825771325
 H         -0.0923821607       -3.2810321290       -3.7361016335
 H          0.8788885739       -1.8718812944       -3.2802926106
 C         -2.1308397524        1.1464950275       -1.0011784804
 C         -2.0277142905        1.1867901674        0.3948525058
 C         -2.2687732842        2.3092784712       -1.7351023709
 C         -2.0381170877        2.4258978531        1.0330408939
 C         -2.1870045204        3.5876114850        0.3013438005
 C         -2.3111349842        3.5288186479       -1.0778669894
 H         -2.3280933002        2.2525695220       -2.8110036751
 H         -2.1900364360        4.5436736975        0.8004653941
 H         -2.4118109056        4.4372886236       -1.6502616559
 H         -1.9259221050        2.4464244224        2.1056196781
 C         -1.9031630628       -0.0535269706        1.1633407826
 O         -1.3937600453       -0.1560395632        2.2549296987
 H         -2.3305556625       -0.9418733578        0.6625337028
