  56
        -94.15034839
 C         -0.5896837072       -2.4349065868       -2.2091300399
 C         -1.0287017660       -2.1278702155       -3.6303334996
 C         -1.7642337783       -2.3203997631       -1.2212309462
 O         -2.8420419162       -1.8332779525       -1.5158291793
 O          1.3672910614       -2.8247066304       -0.2236577091
 O          4.0328187786       -2.1074011317        0.1830332794
 N          0.4376210461       -1.4963962929       -1.7901431041
 C          1.3107432533       -1.7497215943       -0.8146528218
 C          2.2531309821       -0.5860723311       -0.5122502369
 C          3.2701542200       -0.9967279022        0.5720530378
 N          2.8622314884       -0.1500629292       -1.7616881677
 N         -1.4651387932       -2.7954580787       -0.0014408923
 C         -2.3008940975       -2.5258550462        1.1603283422
 C         -1.8528299097       -3.3816277804        2.3309702667
 C         -2.1251476586       -1.0262374719        1.4500892199
 O         -1.2647621199       -0.5853479915        2.1872157442
 N         -2.9772714386       -0.2391447710        0.7590030011
 O         -0.6360877816        0.8194109200       -0.4484551171
 O         -0.6687251018        2.2388893443        1.2932585785
 C         -2.7121897380        1.1890538685        0.7208441385
 C         -1.2275463088        1.3804116057        0.4372982588
 C         -3.5262652476        1.8526169076       -0.3807394514
 H         -0.1626299809       -3.4422414774       -2.1327354787
 H         -0.1748416875       -2.1443600638       -4.3021625641
 H         -1.4975421557       -1.1475674285       -3.6638245415
 H         -1.7574160274       -2.8640555918       -3.9575661647
 H          3.4089395768       -2.8439029544        0.0894308140
 H          0.3705526105       -0.5472798061       -2.1263531998
 H          1.6345451795        0.2320629743       -0.1284119291
 H          2.7314525275       -1.1933582337        1.5086902446
 H          3.9755149329       -0.1769786727        0.7393178149
 H          3.5235491914       -0.8607067164       -2.0652062089
 H          3.3924417057        0.7008853416       -1.6031424848
 H         -0.5041220946       -3.0727831729        0.1843778756
 H         -3.3418564671       -2.7290363247        0.8862508995
 H         -0.8514908150       -3.0840107011        2.6334421982
 H         -1.8493716434       -4.4321529285        2.0525950943
 H         -2.5238852289       -3.2376121123        3.1732641590
 H         -3.4272471981       -0.6447321420       -0.0583137933
 H         -2.9317910771        1.6250670875        1.7017027807
 H         -3.3161690558        1.3658593034       -1.3306329281
 H         -3.2548051118        2.9014547485       -0.4625087289
 H         -4.5873082299        1.7687733610       -0.1612059413
 C          0.6835056661        2.4920867394        1.1578618626
 C          1.2004790578        3.1007875513        0.0057667507
 C          1.5229784011        2.1001868256        2.1898451813
 C          2.5813956773        3.2894205992       -0.0809565616
 C          3.4156153246        2.9113786648        0.9516830244
 C          2.8848062384        2.3216063021        2.0905738966
 H          1.0891979552        1.6142485217        3.0493626699
 H          4.4802046109        3.0716420033        0.8726078085
 H          3.5350350592        2.0206917037        2.8974602066
 H          2.9874049183        3.7516332624       -0.9692356000
 C          0.3378545926        3.5591450346       -1.0922166063
 O         -0.8566108826        3.7029541405       -1.0491993163
 H          0.9060983857        3.7967984848       -2.0133766391
