  56
        -94.15034674
 C         -0.6224836108       -2.4413167750       -2.2040199582
 C         -1.0698417832       -2.1395956274       -3.6237475726
 C         -1.7892975213       -2.3150181621       -1.2084239457
 O         -2.8658547437       -1.8218667733       -1.4976001750
 O          1.3440590734       -2.8305343304       -0.2288853990
 O          4.0030928064       -2.1271343363        0.2045801869
 N          0.4130309573       -1.5062035137       -1.7974570091
 C          1.2920719497       -1.7593178268       -0.8271874917
 C          2.2478226311       -0.6020713605       -0.5425434608
 C          3.2481134487       -1.0007566731        0.5616563351
 N          2.8762505979       -0.2078887358       -1.7964847832
 N         -1.4845085313       -2.7865585620        0.0112664345
 C         -2.3097464341       -2.5062540692        1.1780073607
 C         -1.8584422230       -3.3598066934        2.3490258639
 C         -2.1219786714       -1.0066379549        1.4600855937
 O         -1.2537193813       -0.5685231421        2.1896197569
 N         -2.9725681412       -0.2167253292        0.7705593894
 O         -0.6287058460        0.8264892471       -0.4512459238
 O         -0.6464880712        2.2445199693        1.2919169500
 C         -2.6986937894        1.2096440036        0.7249578302
 C         -1.2135907720        1.3908665363        0.4368373126
 C         -3.5116635789        1.8730264025       -0.3775098148
 H         -0.2004053588       -3.4505399724       -2.1252336000
 H         -1.5342652765       -1.1572524939       -3.6592310273
 H         -1.8043052334       -2.8739780009       -3.9420844489
 H         -0.2206955878       -2.1637518786       -4.3012972546
 H          3.3713270600       -2.8575658210        0.1142160166
 H          0.3493644146       -0.5594103728       -2.1405177390
 H          1.6385407247        0.2350446121       -0.1858734011
 H          2.6964407421       -1.1719339013        1.4958556589
 H          3.9603101683       -0.1851633521        0.7202715037
 H          3.5276304913       -0.9373848077       -2.0759798581
 H          3.4205395241        0.6369567091       -1.6535410740
 H         -0.5237010792       -3.0686312707        0.1912933745
 H         -3.3540467572       -2.7037477219        0.9126802155
 H         -2.5222291688       -3.2077716406        3.1956495456
 H         -0.8530072089       -3.0672525469        2.6427183055
 H         -1.8637401446       -4.4115474484        2.0753226752
 H         -3.4314912013       -0.6228122996       -0.0415111532
 H         -2.9130058377        1.6516251464        1.7043429648
 H         -3.3075374228        1.3803187717       -1.3256379057
 H         -3.2335880814        2.9196640114       -0.4650757785
 H         -4.5725865238        1.7972112654       -0.1544741181
 C          0.7069502269        2.4889917943        1.1531450895
 C          1.2241629436        3.0986834560        0.0016512089
 C          1.5469589501        2.0884695455        2.1813008090
 C          2.6059600258        3.2794851200       -0.0883521420
 C          3.4408096147        2.8928886322        0.9405573924
 C          2.9097649435        2.3022839061        2.0789329052
 H          1.1125974207        1.6022354286        3.0403542593
 H          4.5060879373        3.0471225369        0.8589580530
 H          3.5605160539        1.9948190152        2.8829320980
 H          3.0122554696        3.7420925628       -0.9762801087
 C          0.3610917878        3.5662406356       -1.0920059581
 O         -0.8329377846        3.7132247361       -1.0463718390
 H          0.9285785489        3.8080912494       -2.0125911029
