  56
        -94.15034450
 C         -0.6514118582       -2.4334767442       -2.2099763762
 C         -1.1062986187       -2.1252098341       -3.6258993994
 C         -1.8108915922       -2.3031351406       -1.2063090421
 O         -2.8864629072       -1.8030491343       -1.4870842729
 O          1.3239995318       -2.8381950642       -0.2475097255
 O          3.9750643884       -2.1466101854        0.2218921414
 N          0.3918571214       -1.5050548056       -1.8075365034
 C          1.2755356615       -1.7653996003       -0.8433704646
 C          2.2420470560       -0.6157854591       -0.5641018507
 C          3.2245704857       -1.0107217318        0.5572744053
 N          2.8902613018       -0.2499348926       -1.8167030576
 N         -1.5005856646       -2.7795861390        0.0100638314
 C         -2.3152792315       -2.4963754959        1.1834645170
 C         -1.8601579316       -3.3546638977        2.3495372870
 C         -2.1159197724       -0.9984010701        1.4663594144
 O         -1.2394048442       -0.5667871039        2.1898824414
 N         -2.9669434855       -0.2022051516        0.7847713903
 O         -0.6238150479        0.8327933319       -0.4487881215
 O         -0.6255258856        2.2451716716        1.2990759426
 C         -2.6856796809        1.2227095608        0.7397113500
 C         -1.2010795382        1.3967798450        0.4445877916
 C         -3.5006883691        1.8917619672       -0.3578508639
 H         -0.2344535507       -3.4452201672       -2.1367382472
 H         -1.8465703498       -2.8548530892       -3.9416404469
 H         -0.2616777164       -2.1517175434       -4.3089966722
 H         -1.5659594704       -1.1404239732       -3.6555456900
 H          3.3378305600       -2.8719042178        0.1267740216
 H          0.3307012822       -0.5575457064       -2.1488400793
 H          1.6402657031        0.2348193027       -0.2274127304
 H          2.6591102956       -1.1674624420        1.4858445615
 H          3.9410906220       -0.1990890518        0.7168151113
 H          3.5333333097       -0.9934756463       -2.0779097090
 H          3.4464794702        0.5881312018       -1.6796996391
 H         -0.5401364313       -3.0676851952        0.1825634751
 H         -3.3627863716       -2.6869747647        0.9258430350
 H         -2.5165402239       -3.2002858530        3.2014944461
 H         -0.8507780872       -3.0686212194        2.6360513809
 H         -1.8737662274       -4.4058418679        2.0739724647
 H         -3.4353015888       -0.6040570319       -0.0239587671
 H         -2.8927858973        1.6646190511        1.7206901714
 H         -3.2173870423        2.9369615606       -0.4458040314
 H         -4.5608476177        1.8214932183       -0.1294543083
 H         -3.3041626850        1.3989121171       -1.3074973354
 C          0.7281881164        2.4845242796        1.1541769077
 C          1.2422951326        3.0947783632        0.0015785842
 C          1.5714534658        2.0787957997        2.1775372612
 C          2.6243397739        3.2705947992       -0.0945382528
 C          3.4624657711        2.8790463445        0.9297918708
 C          2.9345150161        2.2880821428        2.0694045536
 H          1.1393028576        1.5924569704        3.0376282632
 H          4.5278876862        3.0296913144        0.8436163931
 H          3.5878006613        1.9768169008        2.8698826056
 H          3.0282563909        3.7334182588       -0.9834204117
 C          0.3759371110        3.5683692111       -1.0868437790
 O         -0.8171529617        3.7207804566       -1.0349924098
 H          0.9399234275        3.8094998449       -2.0097787735
