  56
        -94.15322671
 C         -1.6133354307       -2.2215842829       -0.3610020650
 C         -0.6455296054       -3.3496212288       -0.0459654027
 C         -0.9239988492       -1.0929278247       -1.1452252190
 O          0.2897649887       -0.9596962615       -1.1730231168
 O         -3.9383269143       -0.6618857062       -0.0433549908
 O         -1.1350316365       -0.2937661204        3.0200094409
 N         -2.1132132635       -1.6362646732        0.8723071930
 C         -3.1934385566       -0.8396731780        0.9122909965
 C         -3.4368373260       -0.1703949647        2.2691741167
 C         -2.1803171871        0.6047760869        2.6979914970
 N         -4.5651259229        0.7388256808        2.2380289293
 N         -1.7862284327       -0.2634554136       -1.7534776775
 C         -1.3474248179        1.0243733772       -2.2709671767
 C         -2.4923526490        1.6925556835       -3.0147631951
 C         -0.9273218350        1.8589256224       -1.0507379270
 O         -1.7186686145        2.1483151514       -0.1738459902
 N          0.3726221258        2.2112010269       -1.0229507016
 O          1.1365816151        0.9422105601        1.8538275667
 O          2.5535559799        0.9800233034        0.0995495729
 C          0.9923208081        2.7103328007        0.1927540994
 C          1.5704965537        1.4614145756        0.8574197846
 C          2.0556703447        3.7508237186       -0.1266340829
 H         -2.4770172888       -2.5818714799       -0.9317877972
 H         -0.3446041856       -3.8463314419       -0.9643019276
 H         -1.1131875946       -4.0731941581        0.6161322851
 H          0.2447701154       -2.9443296067        0.4308132504
 H         -0.2895464521        0.1459389602        2.8480981903
 H         -1.4712229434       -1.5644964110        1.6591121888
 H         -3.6366830310       -0.9524557804        3.0130268449
 H         -2.4411762127        1.2087321333        3.5761966569
 H         -1.8886864870        1.2772828877        1.8843064470
 H         -5.3598951723        0.2643944175        1.8186641383
 H         -4.3380753833        1.5162813734        1.6232135831
 H         -2.7679696517       -0.3287987975       -1.4795624098
 H         -0.4854497518        0.8545756443       -2.9242117763
 H         -3.3013704823        1.8994857629       -2.3175910322
 H         -2.8585712143        1.0423392233       -3.8050418828
 H         -2.1571488624        2.6296118527       -3.4513968513
 H          1.0210129872        1.7999519647       -1.6900632935
 H          0.1990480612        3.1167556415        0.8286563269
 H          2.8130835660        3.3179209554       -0.7748888642
 H          2.5258721844        4.1002753857        0.7888388581
 H          1.5979711084        4.5964136743       -0.6327725227
 C          2.9827130530       -0.3260092598        0.2099605533
 C          3.0272443222       -1.0745697396       -0.9767461804
 C          3.3483729216       -0.8887275678        1.4210218469
 C          3.4534939350       -2.3992564053       -0.9060933435
 C          3.8295889046       -2.9605114321        0.2989162202
 C          3.7734263976       -2.2065627574        1.4604081139
 H          3.2930080580       -0.3016591982        2.3240039631
 H          4.1566621073       -3.9883276108        0.3379104509
 H          4.0558637961       -2.6448488766        2.4054656998
 H          3.4809872565       -2.9876288705       -1.8113929776
 C          2.5702344849       -0.5262611966       -2.2596911213
 O          2.3270962797        0.6275832728       -2.5165121514
 H          2.4801924011       -1.3029664690       -3.0418634053
