  56
        -94.15033012
 C         -1.4857357744       -2.1886764199       -2.2353972410
 C         -2.1729917964       -1.5804192883       -3.4464847555
 C         -2.3594902014       -2.0749183778       -0.9788330232
 O         -3.4037982168       -1.4474061044       -0.9449229840
 O          0.8008603573       -3.3004504392       -1.1030988138
 O          3.5098150401       -0.6331996647        0.7465498269
 N         -0.2375787072       -1.4891104577       -1.9591612068
 C          0.7934683410       -2.1013087342       -1.3526085500
 C          2.0121541093       -1.2348425299       -1.0561346433
 C          2.3008148502       -1.2796254153        0.4549855685
 N          3.2035092392       -1.7495108622       -1.7286149874
 N         -1.8238972641       -2.6921523239        0.0889068741
 C         -2.2414216319       -2.3832829024        1.4500524110
 C         -1.5907383799       -3.3459179870        2.4256964590
 C         -1.7835493657       -0.9333766518        1.6897039542
 O         -0.6923985759       -0.6452043895        2.1442195330
 N         -2.6763758160       -0.0103129900        1.2840622229
 O         -0.5006417569        0.8813168203       -0.3789545854
 O         -0.0681037434        2.2100836743        1.3829579445
 C         -2.2629234370        1.3796622307        1.2010409758
 C         -0.8482441505        1.4405678695        0.6316204418
 C         -3.2050221384        2.1549403969        0.2898940799
 H         -1.2301914276       -3.2405476237       -2.4070551580
 H         -2.4171394607       -0.5400356277       -3.2461116258
 H         -3.0971978082       -2.1138308508       -3.6490276516
 H         -1.5267133538       -1.6371939258       -4.3181615893
 H          4.1256016983       -0.8970223907        0.0465750877
 H         -0.2992469872       -0.4810513357       -1.8989986370
 H          1.8506604823       -0.1999199661       -1.3695751780
 H          2.3443730716       -2.3350316251        0.7646227946
 H          1.5088228299       -0.7806733958        1.0171067420
 H          3.1198981231       -1.6397037259       -2.7335202467
 H          3.2733490789       -2.7464941459       -1.5358956972
 H         -0.9246584351       -3.1488983378       -0.0159906758
 H         -3.3345443896       -2.4383913367        1.4953188042
 H         -1.9701916879       -3.1692708825        3.4283209687
 H         -0.5152321076       -3.1828933439        2.4317236363
 H         -1.8004733380       -4.3735989701        2.1408832871
 H         -3.4156867409       -0.3103676352        0.6541303225
 H         -2.2361538944        1.8133421936        2.2075697873
 H         -3.2587837386        1.6647663353       -0.6797258727
 H         -2.8339689203        3.1656806513        0.1453296097
 H         -4.1991560283        2.1927779221        0.7275334134
 C          1.2495281758        2.4011352615        0.9985389241
 C          1.5743232954        3.0131081514       -0.2203056699
 C          2.2413441398        1.9658037364        1.8610633745
 C          2.9251154587        3.1413570749       -0.5542384169
 C          3.9130661789        2.7073750636        0.3049384432
 C          3.5713560347        2.1256092578        1.5171388650
 H          1.9533251383        1.4834363249        2.7810829880
 H          4.9511692493        2.8145485583        0.0305515901
 H          4.3395507684        1.7750927790        2.1867802987
 H          3.1847121194        3.6010201209       -1.4973129337
 C          0.5571064147        3.5534499984       -1.1265447521
 O         -0.6050109438        3.7479736309       -0.8708387201
 H          0.9652270832        3.8140843378       -2.1244632539
