  56
        -94.15032895
 C         -1.4819495177       -2.1690939693       -2.2510338627
 C         -2.1644372677       -1.5492435636       -3.4589020386
 C         -2.3586327725       -2.0632221555       -0.9957922553
 O         -3.4008675676       -1.4324713162       -0.9590625454
 O          0.7983856410       -3.2946367237       -1.1195263510
 O          3.5106174829       -0.6544334945        0.7595984945
 N         -0.2329645339       -1.4746117700       -1.9656447806
 C          0.7943722596       -2.0935517607       -1.3596491397
 C          2.0137239978       -1.2320030545       -1.0517627800
 C          2.3006674468       -1.2949485842        0.4590225209
 N          3.2051554598       -1.7402286297       -1.7290806832
 N         -1.8278327675       -2.6914576505        0.0679747312
 C         -2.2472737920       -2.3918414644        1.4305782278
 C         -1.6017645525       -3.3640646399        2.4001370975
 C         -1.7856271467       -0.9452219963        1.6826217347
 O         -0.6938713738       -0.6637344160        2.1398059729
 N         -2.6763150338       -0.0165038180        1.2850163257
 O         -0.5030705721        0.8860402472       -0.3738755367
 O         -0.0635979412        2.2004307450        1.3967863349
 C         -2.2599861466        1.3733231839        1.2154743063
 C         -0.8471843886        1.4377237557        0.6420415451
 C         -3.2036087838        2.1602016964        0.3159217947
 H         -1.2284473032       -3.2201334984       -2.4305468634
 H         -3.0892939486       -2.0788075228       -3.6684250568
 H         -1.5158687025       -1.6002683284       -4.3292307030
 H         -2.4067311846       -0.5100159942       -3.2504677755
 H          4.1269067402       -0.9115230414        0.0575973262
 H         -0.2929442056       -0.4669201486       -1.8979447653
 H          1.8538713906       -0.1933067279       -1.3533903533
 H          2.3417337257       -2.3540105837        0.7562578352
 H          1.5089534768       -0.8010504035        1.0260023343
 H          3.1224506338       -1.6190187586       -2.7327407855
 H          3.2740200317       -2.7393587582       -1.5474877596
 H         -0.9296253623       -3.1499008477       -0.0386174204
 H         -3.3406545018       -2.4439247059        1.4731225470
 H         -1.9819365323       -3.1931498767        3.4034726361
 H         -0.5256367609       -3.2054353316        2.4088348549
 H         -1.8151991065       -4.3888005867        2.1076183660
 H         -3.4147784383       -0.3092029850        0.6506353528
 H         -2.2290210886        1.7959780346        2.2265466381
 H         -3.2599283625        1.6818071790       -0.6594152313
 H         -2.8322891650        3.1723638925        0.1826661488
 H         -4.1966682253        2.1933318596        0.7563468799
 C          1.2524181641        2.3936093871        1.0076124492
 C          1.5713951802        3.0167149772       -0.2072017412
 C          2.2483102754        1.9487751769        1.8604476855
 C          2.9204526269        3.1457903978       -0.5476435141
 C          3.9125246512        2.7017199137        0.3016537183
 C          3.5766845669        2.1095078546        1.5104310043
 H          1.9650074911        1.4583019868        2.7776185078
 H          4.9492261840        2.8095782365        0.0222329132
 H          4.3479028648        1.7513403207        2.1724728041
 H          3.1754780339        3.6140536813       -1.4877288737
 C          0.5500072502        3.5674017323       -1.1024751796
 O         -0.6105655900        3.7601681492       -0.8387349578
 H          0.9532557232        3.8383325545       -2.0996169210
