  56
        -94.15032696
 C         -1.5418420622       -1.3466608047       -2.2932848681
 C         -0.7187445289       -0.8938680557       -3.4859675857
 C         -2.3010015523       -0.1636112289       -1.6688876498
 O         -2.1566036700        0.9972830617       -2.0126093472
 O         -2.2382208976       -3.0476069578       -0.1299594158
 O          0.0988488226       -1.2024549708        1.9683179114
 N         -0.6576843982       -1.9252155724       -1.2894160511
 C         -1.0628549552       -2.7381169877       -0.3128867234
 C          0.0237812493       -3.2637720909        0.6165056891
 C         -0.1587876472       -2.5875573784        2.0026349048
 N         -0.1088292552       -4.7078648031        0.6761557307
 N         -3.1399851222       -0.5487252389       -0.6928928259
 C         -3.7110275919        0.4011276335        0.2476429064
 C         -4.8042828900       -0.2667479783        1.0624772891
 C         -2.5341284146        0.8454916092        1.1255332052
 O         -2.2416804744        0.2907634313        2.1725143277
 N         -1.8294039155        1.8658335654        0.6019987794
 O          0.5310695057        1.0856230245       -0.5444002082
 O          1.7403352673        2.0789906622        1.0785557254
 C         -0.5976612749        2.3240940922        1.1986350483
 C          0.6013966673        1.7378656244        0.4616899724
 C         -0.5304442429        3.8522669256        1.1737593484
 H         -2.2759578987       -2.1125001183       -2.5774977871
 H         -1.3705601622       -0.4726135139       -4.2461003318
 H         -0.1666215749       -1.7300995347       -3.9059820477
 H         -0.0213178144       -0.1237550721       -3.1653431360
 H         -0.7287101545       -0.7133603394        2.1148524466
 H          0.3239694581       -1.6769241951       -1.3612780341
 H          1.0160627762       -3.0206902517        0.2253309744
 H          0.5581988976       -3.0438017783        2.7003189836
 H         -1.1720152956       -2.7956557403        2.3609579272
 H         -1.0885577825       -4.9444687605        0.8049430461
 H          0.4156202710       -5.0832927257        1.4591326941
 H         -3.1205218625       -1.5318365606       -0.4071820819
 H         -4.0962448495        1.2582458313       -0.3160084938
 H         -5.2646049856        0.4553214426        1.7314191380
 H         -4.3749500974       -1.0673612918        1.6598282762
 H         -5.5631810115       -0.6793720483        0.4036262407
 H         -1.9598691696        2.0581976231       -0.3904212458
 H         -0.5710420379        1.9569355896        2.2318160863
 H         -1.3859261176        4.2626871873        1.7032871352
 H         -0.5499541050        4.2098925853        0.1465228128
 H          0.3815526336        4.1942056739        1.6539722658
 C          2.9677761346        1.8497816381        0.4673482118
 C          3.2661568746        0.6787381497       -0.2310012556
 C          3.8971912807        2.8772727964        0.5449747356
 C          4.4948088179        0.5795291813       -0.8806210540
 C          5.4247750720        1.5969213956       -0.7941603602
 C          5.1295586560        2.7407522901       -0.0686792536
 H          3.6405805239        3.7729661099        1.0886144604
 H          6.3779994498        1.5013355877       -1.2906350913
 H          5.8536303043        3.5372736945        0.0083111949
 H          4.7030257695       -0.3214624590       -1.4375399539
 C          2.3244909381       -0.4569105595       -0.2671657788
 O          2.1988646600       -1.2066000441       -1.2071363873
 H          1.7840016820       -0.6301542565        0.6789577318
