  56
        -94.15032375
 C         -1.4756407409       -2.1417764019       -2.2692784921
 C         -2.1510150819       -1.5048625995       -3.4722578857
 C         -2.3559510129       -2.0455819396       -1.0157351568
 O         -3.3961294476       -1.4117524327       -0.9755703079
 O          0.7972034505       -3.2912858124       -1.1455070656
 O          3.5035670240       -0.6799307017        0.7838506535
 N         -0.2242912663       -1.4566209894       -1.9720312261
 C          0.7983672324       -2.0872256126       -1.3702727667
 C          2.0192415607       -1.2340978319       -1.0450918211
 C          2.2931319116       -1.3118265535        0.4675670136
 N          3.2140892115       -1.7419822445       -1.7164998766
 N         -1.8306330719       -2.6867500022        0.0430753930
 C         -2.2530203981       -2.4001260281        1.4075469922
 C         -1.6120427665       -3.3837036498        2.3686498698
 C         -1.7888004217       -0.9572592786        1.6759161793
 O         -0.6971336784       -0.6831155835        2.1376985916
 N         -2.6771292604       -0.0222487400        1.2876286069
 O         -0.5080655713        0.8905754997       -0.3662587992
 O         -0.0589445513        2.1915782726        1.4114626569
 C         -2.2571912101        1.3671804698        1.2347545377
 C         -0.8472419271        1.4353272883        0.6550623596
 C         -3.2033275679        2.1688233707        0.3510261625
 H         -1.2267898521       -3.1919989427       -2.4597519751
 H         -2.3876798496       -0.4665405485       -3.2531025751
 H         -3.0783826974       -2.0266052770       -3.6901322060
 H         -1.5002354964       -1.5502508247       -4.3412546685
 H          4.1247497683       -0.9346422614        0.0853022067
 H         -0.2806620082       -0.4495865712       -1.8922878388
 H          1.8668272029       -0.1920117462       -1.3389226500
 H          2.3267637697       -2.3737182884        0.7555514171
 H          1.4991747569       -0.8193193329        1.0326191386
 H          3.1409625717       -1.6110167676       -2.7196799824
 H          3.2760297694       -2.7431537736       -1.5437566911
 H         -0.9341901267       -3.1479926767       -0.0656098668
 H         -3.3466197251       -2.4501955209        1.4468068190
 H         -0.5357631123       -3.2263825086        2.3828222785
 H         -1.8256046293       -4.4049219768        2.0641279181
 H         -1.9955289009       -3.2233912577        3.3724790972
 H         -3.4141353273       -0.3060411102        0.6475374620
 H         -2.2198383182        1.7757767651        2.2513488257
 H         -3.2654292886        1.7043997825       -0.6307031779
 H         -2.8304455868        3.1819701448        0.2302382384
 H         -4.1941230306        2.1978303774        0.7968402493
 C          1.2549151953        2.3862222296        1.0155150025
 C          1.5668100392        3.0163717782       -0.1975724563
 C          2.2557828193        1.9347479038        1.8589306795
 C          2.9136901371        3.1448325469       -0.5465995097
 C          3.9107576864        2.6935113942        0.2930716732
 C          3.5820746508        2.0952049238        1.5008072498
 H          1.9782050470        1.4391104178        2.7750397019
 H          4.9456973910        2.8008849585        0.0069521700
 H          4.3569586718        1.7316398984        2.1555667855
 H          3.1631373326        3.6183489471       -1.4855499310
 C          0.5404285705        3.5750929449       -1.0822132178
 O         -0.6176659511        3.7691915343       -0.8088335731
 H          0.9371978056        3.8510489603       -2.0805664344
