  56
        -94.15029956
 C         -1.3422991302       -0.7884677628       -1.7751926014
 C         -0.3904224666       -1.7339182613       -2.4863838016
 C         -0.6798813584        0.5661296184       -1.4719709368
 O          0.5256190361        0.7383478913       -1.5321914849
 O         -3.6616947514       -0.1909790153       -0.3273525351
 O         -5.4736723456       -1.5201637998        1.2756117962
 N         -1.7334718915       -1.3446485284       -0.4903378201
 C         -2.8336652821       -0.9592060535        0.1616229744
 C         -3.0428906056       -1.5606341373        1.5405364397
 C         -4.3714580714       -2.3471451700        1.4978305612
 N         -1.9465714494       -2.4392940741        1.9074134312
 N         -1.5575185717        1.5098111497       -1.0885248926
 C         -1.1250805115        2.6666367530       -0.3139158114
 C         -2.2685693492        3.6559705253       -0.1786887532
 C         -0.7290099122        2.0671855105        1.0459548546
 O         -1.5563176750        1.6059991828        1.8059299411
 N          0.5988690527        2.0174250201        1.2786474220
 O          0.7933678814       -1.0634598375        1.3025871710
 O          2.6529763330        0.1099085228        0.8093160774
 C          1.1470971730        1.1234712014        2.2866980130
 C          1.5077116373       -0.1058687076        1.4556785699
 C          2.3292316382        1.7564535494        3.0011944930
 H         -2.2559269747       -0.6226540768       -2.3580803895
 H         -0.8531099340       -2.7084701667       -2.6163273231
 H          0.5217285857       -1.8412225110       -1.9035327560
 H         -0.1267091550       -1.3290555653       -3.4594571375
 H         -5.2206255662       -0.8782640252        0.5886088673
 H         -1.0636910285       -1.9148656718        0.0084081709
 H         -3.1828204546       -0.7056896774        2.2261679338
 H         -4.5353586224       -2.8424101870        2.4603124417
 H         -4.2911365630       -3.1239993615        0.7201982815
 H         -2.1744539172       -2.9352607362        2.7619595722
 H         -1.1049627219       -1.8974553466        2.0832462746
 H         -2.5197272347        1.2142203315       -0.9248450005
 H         -0.2556172247        3.1082973643       -0.8098458372
 H         -2.6416652812        3.9391268581       -1.1593810637
 H         -1.9301263014        4.5461045499        0.3447566874
 H         -3.0722544784        3.1976813370        0.3935435592
 H          1.2598561207        2.3028265561        0.5612942211
 H          0.3329156645        0.8715595784        2.9739996483
 H          1.9988598273        2.6443167495        3.5334040995
 H          3.0897728086        2.0396046462        2.2787310850
 H          2.7568246200        1.0563133082        3.7140513231
 C          2.9879828720       -0.6317879477       -0.3043197935
 C          3.2297814489        0.0752359698       -1.4922225986
 C          3.0846435973       -2.0124373874       -0.2645500382
 C          3.5868558007       -0.6471934003       -2.6292425218
 C          3.6985587815       -2.0235904522       -2.5893496965
 C          3.4422421115       -2.7050482585       -1.4098121473
 H          2.8743868771       -2.5363803960        0.6547866230
 H          3.9744589609       -2.5697436000       -3.4783338752
 H          3.5154451912       -3.7814906682       -1.3786856051
 H          3.7685205291       -0.1139162865       -3.5506402234
 C          3.0395344292        1.5283933504       -1.5812168953
 O          2.8248636957        2.2910866655       -0.6723060784
 H          3.1185891681        1.9020051248       -2.6192818404
