  56
        -94.15027465
 C          2.1873667952       -1.5939920499       -0.3805468996
 C          3.4275724943       -2.4730055741       -0.5746286686
 C          0.9483946963       -2.3938437404       -0.7780512183
 O          0.4964744880       -2.3653979067       -1.9092482686
 O          2.3726896550        1.0286577090        0.5385227092
 O          0.1853223939        2.5795948403       -1.9373536723
 N          2.2801159363       -0.4048176246       -1.1962691132
 C          2.3481521690        0.8267549378       -0.6664498280
 C          2.5381418494        1.9768920387       -1.6686808000
 C          1.3365766845        2.1644147619       -2.6164544196
 N          2.7936385157        3.2358145666       -0.9935517380
 N          0.4692989752       -3.1856132648        0.1969947680
 C         -0.7303692530       -3.9936530913        0.0306164022
 C         -0.6566134515       -5.2357382549        0.9025053814
 C         -1.9196349334       -3.0972141266        0.4193203109
 O         -2.5605775785       -3.2377101231        1.4355197504
 N         -2.1369006851       -2.1189731588       -0.4885656329
 O         -0.8791884215        0.2960435257       -0.8208081295
 O         -2.1553316214        1.1459602346        0.8218746021
 C         -2.8395006936       -0.9118923724       -0.1248566188
 C         -1.8220626462        0.2194065086       -0.0718810621
 C         -3.9160526267       -0.5556026586       -1.1520761717
 H          2.1125778558       -1.2636221681        0.6586996335
 H          3.4947641634       -2.7953971052       -1.6114030933
 H          3.3694148347       -3.3515310212        0.0623315002
 H          4.3225878426       -1.9100767271       -0.3217257820
 H         -0.1741836721        1.8091239950       -1.4632945062
 H          2.1031425801       -0.5378432942       -2.1809925551
 H          3.4203952975        1.7226612276       -2.2751484230
 H          1.1527472743        1.2445323133       -3.1863654767
 H          1.5855910242        2.9694491072       -3.3133615551
 H          3.2395901579        3.0495605190       -0.0991711850
 H          1.8986827853        3.6754214230       -0.7917614190
 H          0.7436081331       -3.0047729753        1.1510141490
 H         -0.7951009826       -4.2529765099       -1.0312322246
 H         -0.6752730258       -4.9495781504        1.9513236035
 H          0.2509277047       -5.7960439377        0.6930394886
 H         -1.5188206457       -5.8676165651        0.7107562640
 H         -1.4833359137       -2.0217153128       -1.2591080222
 H         -3.2794971213       -1.0644862959        0.8650702769
 H         -3.4612405798       -0.3960418577       -2.1273194679
 H         -4.4389004272        0.3478225883       -0.8500145860
 H         -4.6297361161       -1.3715681031       -1.2243977838
 C         -1.2503218965        2.1728295423        1.0835434721
 C         -0.0389457621        1.9061414246        1.7331273600
 C         -1.6062978451        3.4663760034        0.7407225727
 C          0.7981054307        2.9821316959        2.0326348939
 C          0.4552037204        4.2700704514        1.6733978993
 C         -0.7485100044        4.5129417861        1.0289311954
 H         -2.5461798329        3.6368968942        0.2400116291
 H          1.1250556898        5.0877503817        1.8918306377
 H         -1.0187323281        5.5176903469        0.7432029277
 H          1.7374700529        2.7798314237        2.5232091986
 C          0.3958298921        0.5494728351        2.0920018924
 O         -0.1121483903       -0.4890361051        1.7344826638
 H          1.2640359948        0.5452950220        2.7731820127
