  56
        -94.15026837
 C         -3.0771547725        0.7503752408       -1.8447777754
 C         -3.0881348880        0.6988063475       -3.3636471869
 C         -2.2049227029        1.9162901190       -1.3410996321
 O         -1.5484408988        2.6285478653       -2.0843143576
 O         -3.4316277395       -0.2927248189        0.7727301277
 O         -0.3962775940       -2.2541864546       -1.2987200437
 N         -2.6003896780       -0.5189076593       -1.3178666150
 C         -2.8262280550       -0.9475672045       -0.0689783084
 C         -2.2858142437       -2.3464702421        0.2435838690
 C         -0.7561165571       -2.3828734048        0.0565350104
 N         -2.6088775817       -2.7811035332        1.5868680786
 N         -2.2705932348        2.0761909342       -0.0132144754
 C         -1.4227887521        3.0071508246        0.7142961857
 C         -1.8626179212        3.0778839398        2.1657645670
 C          0.0079836869        2.4708398327        0.5849219184
 O          0.4995445841        1.6641227135        1.3523873568
 N          0.6718454284        2.9384680679       -0.4941036397
 O          0.8549437202        0.1965804827       -1.1724275357
 O          2.7421375523        0.2467774701        0.0498828379
 C          1.9425765712        2.3099392112       -0.8070866865
 C          1.7641117389        0.8018653718       -0.6564720068
 C          2.3588733162        2.6397576619       -2.2340348233
 H         -4.0905799718        0.9050369421       -1.4506074193
 H         -2.0730999879        0.5750223450       -3.7336028415
 H         -3.4814946618        1.6306521638       -3.7595097683
 H         -3.7034782127       -0.1267041157       -3.7115741536
 H          0.1184446679       -1.4363803895       -1.4017715188
 H         -1.9653140567       -1.0618062204       -1.8919027075
 H         -2.7309873343       -3.0564166092       -0.4646813323
 H         -0.4010671387       -3.3512897568        0.4274430669
 H         -0.3008585866       -1.5950546565        0.6663606187
 H         -3.6101961451       -2.7017728658        1.7359175472
 H         -2.1680023416       -2.1586507221        2.2582969074
 H         -2.7883569955        1.3844069887        0.5327545552
 H         -1.4842118974        3.9878364679        0.2270050379
 H         -1.2805943080        3.8279299120        2.6943527316
 H         -1.6977714335        2.1143568768        2.6422606334
 H         -2.9167328045        3.3346296385        2.2283534364
 H          0.1022326262        3.2589152984       -1.2761701446
 H          2.6963783508        2.6415218608       -0.0834562426
 H          1.6061799479        2.2723302165       -2.9285091713
 H          3.3152768825        2.1780801033       -2.4662489634
 H          2.4514900270        3.7164935179       -2.3484007270
 C          2.7109283152       -1.1326865917        0.2609280241
 C          2.6073651455       -1.6183926222        1.5683079161
 C          2.8112612433       -2.0035324124       -0.8114397143
 C          2.6202166563       -2.9987720782        1.7684734390
 C          2.7154165498       -3.8693653549        0.7008335302
 C          2.8090058101       -3.3708366768       -0.5888138740
 H          2.8879549009       -1.6105383773       -1.8139911214
 H          2.7135995339       -4.9351649961        0.8694852549
 H          2.8774658040       -4.0437188555       -1.4292719822
 H          2.5406829137       -3.3587736823        2.7833206824
 C          2.4568879481       -0.7111630634        2.7225199703
 O          2.4715249793       -1.0784744668        3.8694932847
 H          2.3099056267        0.3470624217        2.4540201403
