  56
        -94.15026808
 C          2.1579379849       -1.6184319651       -0.3388898875
 C          3.3993196248       -2.5072317735       -0.4705189218
 C          0.9264125813       -2.4134605387       -0.7676590537
 O          0.4904026680       -2.3668062637       -1.9042260220
 O          2.3730554222        1.0198220738        0.5354562099
 O          0.2114427530        2.5376803856       -1.9731934893
 N          2.2855622067       -0.4456219363       -1.1733372834
 C          2.3568929533        0.7950045895       -0.6654905926
 C          2.5597550381        1.9239974248       -1.6889228564
 C          1.3606450168        2.1006415212       -2.6421046253
 N          2.8226604709        3.1941344342       -1.0380389558
 N          0.4303240040       -3.2177299668        0.1888061360
 C         -0.7789548505       -4.0057045589       -0.0029324956
 C         -0.7242233786       -5.2749174652        0.8303023004
 C         -1.9540274658       -3.1024476984        0.4125000571
 O         -2.5949215630       -3.2605414629        1.4261924628
 N         -2.1551258416       -2.0937245789       -0.4649452417
 O         -0.8668829010        0.2909138576       -0.7914154494
 O         -2.1391463632        1.1917854816        0.8271656755
 C         -2.8355603303       -0.8850701335       -0.0665307778
 C         -1.8097848425        0.2390452487       -0.0403132120
 C         -3.9465332429       -0.5111934598       -1.0506923405
 H          2.0462205253       -1.2695627304        0.6911043952
 H          3.3120014955       -3.3751053780        0.1776007902
 H          4.2867564693       -1.9444901920       -0.1918983517
 H          3.5054842426       -2.8463884957       -1.4986320211
 H         -0.1513347942        1.7811832556       -1.4796482717
 H          2.1129614330       -0.5939543131       -2.1569463002
 H          3.4411745302        1.6515384802       -2.2884903945
 H          1.1709751269        1.1704615346       -3.1931483762
 H          1.6157925510        2.8894210676       -3.3551394407
 H          3.2655510808        3.0225085058       -0.1392510928
 H          1.9303220572        3.6436766996       -0.8467731830
 H          0.7012357294       -3.0603810042        1.1479320880
 H         -0.8452369300       -4.2314999812       -1.0722280571
 H         -1.5950242287       -5.8881357363        0.6178394436
 H         -0.7403148931       -5.0215795104        1.8875591019
 H          0.1754973550       -5.8413282752        0.6042474166
 H         -1.5048572948       -1.9864312611       -1.2365641049
 H         -3.2427169447       -1.0431465856        0.9366212691
 H         -3.5274333788       -0.3470438582       -2.0410785579
 H         -4.4501193845        0.3935959792       -0.7214111739
 H         -4.6689668820       -1.3209621853       -1.1028174013
 C         -1.2247728066        2.2162782875        1.0646336978
 C         -0.0164927013        1.9526692255        1.7211515915
 C         -1.5672761329        3.5046252716        0.6902755497
 C          0.8316440670        3.0266304432        1.9953671522
 C          0.5020232226        4.3090880968        1.6052330550
 C         -0.6987217449        4.5488237970        0.9540531614
 H         -2.5048937650        3.6727783853        0.1845565725
 H          1.1801572803        5.1248794764        1.8043481268
 H         -0.9581742143        5.5491505523        0.6438516529
 H          1.7686798511        2.8265046499        2.4912694480
 C          0.4031650818        0.5997390805        2.1109268501
 O         -0.1199456849       -0.4402573629        1.7802657057
 H          1.2742881865        0.6005098814        2.7882341710
