  56
        -94.15026771
 C         -1.9011035024       -3.1229725324        0.2816525922
 C         -2.5719736361       -3.7273851973       -0.9408218331
 C         -2.5768845079       -1.7967088988        0.6794064150
 O         -3.4691600052       -1.2800604764        0.0253917551
 O          0.1983946857       -2.7729675113        2.1618594993
 O          1.3136108673       -1.5777990775       -1.6675359497
 N         -0.4855274880       -2.9246846837        0.0120027507
 C          0.4491281694       -2.7856955003        0.9615684262
 C          1.8855986318       -2.6624916020        0.4437709997
 C          2.0244531536       -1.4228989224       -0.4620392072
 N          2.8581136302       -2.5777109173        1.5137263817
 N         -2.1006437097       -1.2962418855        1.8263884887
 C         -2.4710300099        0.0158882935        2.3324849841
 C         -1.9050757219        0.2076618035        3.7282284244
 C         -1.8891064692        1.0335420932        1.3439952742
 O         -0.7655188259        1.4934229033        1.4302971007
 N         -2.7210359756        1.3456002818        0.3270696034
 O         -0.6096369392        0.3555134331       -1.2754782033
 O          0.1446041792        2.4731275000       -1.2016112344
 C         -2.1610874069        2.1205757053       -0.7655670441
 C         -0.7898453093        1.5358978297       -1.0925696676
 C         -3.0630936496        2.0379075965       -1.9893780452
 H         -1.9751870824       -3.7995068358        1.1437278756
 H         -2.0913102010       -4.6628345025       -1.2147985975
 H         -2.5112768745       -3.0313505927       -1.7740898301
 H         -3.6213128624       -3.9120061193       -0.7297141499
 H          0.6137091247       -0.9043819216       -1.6976777004
 H         -0.2028954108       -2.7721634254       -0.9494191354
 H          2.1135493717       -3.5502510571       -0.1593698386
 H          3.0890780341       -1.3001627928       -0.6918392062
 H          1.6886983374       -0.5369233666        0.0875632550
 H          2.7334316671       -3.3619750219        2.1465886591
 H          2.6870471062       -1.7378042321        2.0595460012
 H         -1.3018826586       -1.7614484806        2.2627060834
 H         -3.5649421257        0.0951013004        2.3273453346
 H         -0.8187165838        0.2200251181        3.6806236145
 H         -2.2275492766       -0.5996894244        4.3802910153
 H         -2.2427974776        1.1550832865        4.1393656573
 H         -3.4357567769        0.6568696156        0.0949819425
 H         -2.0241614633        3.1579527990       -0.4386239968
 H         -2.6501335106        2.6258211457       -2.8052002062
 H         -4.0493612796        2.4222995154       -1.7433392557
 H         -3.1550681134        1.0011022576       -2.3062293924
 C          1.4507761781        2.0805638769       -1.4983203640
 C          2.4656444320        2.3439758217       -0.5727198098
 C          1.7369060792        1.4657275672       -2.7060016156
 C          3.7733815210        1.9843964018       -0.8984418385
 C          4.0607574116        1.3665505504       -2.0995022287
 C          3.0416797105        1.1062416021       -3.0018315781
 H          0.9406303322        1.2681490130       -3.4076331377
 H          5.0754948519        1.0840355354       -2.3337797042
 H          3.2560433691        0.6179087576       -3.9395933746
 H          4.5462132903        2.1953379482       -0.1745126144
 C          2.1790953619        2.9606418995        0.7370348480
 O          3.0307612433        3.3015996048        1.5174545383
 H          1.1068027020        3.0741229632        0.9622266634
