  56
        -94.15322513
 C         -1.6089248128       -2.2210589087       -0.3591573669
 C         -0.6397961489       -3.3470651437       -0.0409589933
 C         -0.9199022734       -1.0913250866       -1.1420368377
 O          0.2935971799       -0.9547527448       -1.1658760081
 O         -3.9376471730       -0.6655883331       -0.0486839296
 O         -1.1436845145       -0.2914773096        3.0228333971
 N         -2.1133869268       -1.6363214136        0.8725859869
 C         -3.1953248936       -0.8418790105        0.9092415849
 C         -3.4438241030       -0.1726370419        2.2652106327
 C         -2.1898975424        0.6048839593        2.6976261701
 N         -4.5738948589        0.7342883862        2.2307492011
 N         -1.7822949552       -0.2646497698       -1.7539904945
 C         -1.3449767481        1.0242038327       -2.2703680967
 C         -2.4901133689        1.6906271539       -3.0153358394
 C         -0.9278185752        1.8585498798       -1.0489769213
 O         -1.7208737186        2.1463558300       -0.1730929842
 N          0.3717921915        2.2117622174       -1.0186542126
 O          1.1333835456        0.9338106837        1.8536787658
 O          2.5539362211        0.9804068839        0.1024268185
 C          0.9897723450        2.7080130144        0.1990800735
 C          1.5684851800        1.4573463508        0.8600685834
 C          2.0521947313        3.7507143525       -0.1161946553
 H         -2.4703456607       -2.5833489131       -0.9320979044
 H          0.2475678675       -2.9400793380        0.4398026713
 H         -0.3339011486       -3.8423582023       -0.9584166740
 H         -1.1084792414       -4.0722543665        0.6186542852
 H         -0.2983195757        0.1475953058        2.8486514117
 H         -1.4738217583       -1.5630450921        1.6612674964
 H         -3.6441580171       -0.9549128882        3.0086752740
 H         -2.4544467774        1.2083342690        3.5750585723
 H         -1.8975193218        1.2779431111        1.8847403504
 H         -5.3673535014        0.2575065385        1.8115767368
 H         -4.3476217908        1.5109175646        1.6145895054
 H         -2.7646293455       -0.3320037300       -1.4826404185
 H         -0.4818635434        0.8562611221       -2.9226118064
 H         -2.8539360203        1.0401391690       -3.8065052691
 H         -2.1559886917        2.6285227287       -3.4509892370
 H         -3.3005276181        1.8956633041       -2.3192191358
 H          1.0213517833        1.8024094891       -1.6858278792
 H          0.1954752010        3.1116258129        0.8355038755
 H          2.8105053055        3.3208650855       -0.7654372972
 H          2.5214316688        4.0975639459        0.8007542760
 H          1.5939005746        4.5975479910       -0.6197185005
 C          2.9847805337       -0.3253894764        0.2087631579
 C          3.0310387274       -1.0701604876       -0.9802830455
 C          3.3505195753       -0.8915534867        1.4181872747
 C          3.4593446413       -2.3944236206       -0.9137148313
 C          3.8357197793       -2.9589392111        0.2896419428
 C          3.7775938910       -2.2088437664        1.4535173290
 H          3.2936147970       -0.3075749144        2.3230858064
 H          4.1644862418       -3.9863203091        0.3254773884
 H          4.0601122735       -2.6497988060        2.3972897748
 H          3.4881873692       -2.9798681338       -1.8208932899
 C          2.5729654324       -0.5189557210       -2.2614600847
 O          2.3278982470        0.6351884707       -2.5152123648
 H          2.4836224845       -1.2936905137       -3.0457150495
