  56
        -94.15026666
 C         -3.0673066107        0.7513461760       -1.8488868416
 C         -3.0696397775        0.7035114477       -3.3679267341
 C         -2.2010576305        1.9184428801       -1.3375516172
 O         -1.5429617063        2.6348097177       -2.0752700851
 O         -3.4317310321       -0.2994692756        0.7648282569
 O         -0.3814316198       -2.2472203211       -1.2992524015
 N         -2.5904082919       -0.5181472019       -1.3227403918
 C         -2.8202769063       -0.9501800150       -0.0756989487
 C         -2.2761539024       -2.3478227522        0.2362463194
 C         -0.7457001622       -2.3779434678        0.0546539639
 N         -2.6023864684       -2.7862425703        1.5775134939
 N         -2.2742714908        2.0744806908       -0.0095177846
 C         -1.4316673483        3.0043395635        0.7254152962
 C         -1.8781699705        3.0683586931        2.1751500202
 C          0.0004046342        2.4707130703        0.5997184747
 O          0.4891481827        1.6596032758        1.3643321643
 N          0.6688910372        2.9457221969       -0.4732224779
 O          0.8564305287        0.2091203663       -1.1714970612
 O          2.7386579305        0.2506018821        0.0584435962
 C          1.9413846273        2.3202061709       -0.7848940032
 C          1.7632728266        0.8108497516       -0.6472979015
 C          2.3640700649        2.6614609023       -2.2072768847
 H         -4.0832734022        0.9024285679       -1.4599266277
 H         -3.6812820686       -0.1224209380       -3.7213288917
 H         -2.0522309743        0.5826103114       -3.7323020301
 H         -3.4625609717        1.6355464918       -3.7637640306
 H          0.1302726048       -1.4271415709       -1.4004192341
 H         -1.9491891992       -1.0570122065       -1.8938471247
 H         -2.7159261842       -3.0580356384       -0.4750671062
 H         -0.3880062217       -3.3450320891        0.4264199958
 H         -0.2960458978       -1.5885312852        0.6665822155
 H         -3.6047749752       -2.7132108835        1.7224806186
 H         -2.1681038136       -2.1621111258        2.2516855795
 H         -2.7927547223        1.3795305452        0.5317572767
 H         -1.4928368214        3.9868657180        0.2418460090
 H         -1.7109561641        2.1040056551        2.6491451382
 H         -2.9337816981        3.3198957913        2.2338256923
 H         -1.3021349192        3.8194343305        2.7088219359
 H          0.1028164832        3.2706053086       -1.2559082722
 H          2.6915766585        2.6464162701       -0.0550934558
 H          2.4555782876        3.7391872675       -2.3128966618
 H          1.6151446209        2.2983094213       -2.9080655194
 H          3.3222624349        2.2030349093       -2.4385483108
 C          2.7094259053       -1.1309563679        0.2563836200
 C          2.5967062021       -1.6293054596        1.5582200701
 C          2.8214907284       -1.9912841474       -0.8232655442
 C          2.6138616226       -3.0114363402        1.7455805484
 C          2.7217367955       -3.8715764408        0.6707012452
 C          2.8231805425       -3.3606079628       -0.6134622706
 H          2.9041267190       -1.5885884461       -1.8214989180
 H          2.7224047797       -4.9389091234        0.8294023680
 H          2.9001178001       -4.0253761146       -1.4596259032
 H          2.5267860512       -3.3812443702        2.7562755824
 C          2.4310842078       -0.7337501030        2.7195248887
 O          2.4374878755       -1.1119790004        3.8630198749
 H          2.2806149220        0.3261487908        2.4597974605
