  56
        -94.15025735
 C         -0.5544773238       -2.2628086909       -1.8701390881
 C         -0.5450794509       -1.6686380085       -3.2756372497
 C         -1.8841046244       -1.9606278966       -1.1687156269
 O         -2.8438701944       -1.4835374789       -1.7546775173
 O          1.9181171848       -3.4755079182       -1.0869464198
 O          0.4373182905       -1.8771863278        1.8733620788
 N          0.5062962385       -1.7040493236       -1.0547469911
 C          1.6015965832       -2.3812645415       -0.6656951417
 C          2.4151811657       -1.6548250062        0.4164240888
 C          1.8219932896       -2.0852114009        1.7755541474
 N          3.8252310367       -1.9955517692        0.3964306819
 N         -1.8886902119       -2.2287375858        0.1464011064
 C         -2.9678077909       -1.8072586841        1.0267276476
 C         -2.9821520297       -2.6710795926        2.2751860146
 C         -2.7173551390       -0.3278715680        1.3719833684
 O         -2.3706096167        0.0654627576        2.4647258577
 N         -2.8984849520        0.4930425465        0.3099708756
 O         -0.2121170557        0.6799365487        0.5149675244
 O         -0.2259899567        2.9121564737        0.3483213324
 C         -2.3366365657        1.8220312276        0.3263844289
 C         -0.8174945027        1.7163996405        0.3857919528
 C         -2.7943081404        2.6250467737       -0.8834317372
 H         -0.3906605198       -3.3463386405       -1.9157920354
 H         -1.4050778274       -2.0317295666       -3.8302881546
 H          0.3666682084       -1.9524268071       -3.7940864991
 H         -0.6051981028       -0.5841262548       -3.2171908697
 H          0.2408758419       -0.9314429878        1.8084892891
 H          0.3149914152       -0.8038400229       -0.6377453989
 H          2.3117434188       -0.5687109159        0.3039365338
 H          2.3636160071       -1.5649794612        2.5749026918
 H          1.9713021994       -3.1615316349        1.8980222962
 H          4.2396066490       -1.6875791003       -0.4780521261
 H          3.9084350571       -3.0092439088        0.4114138180
 H         -1.0249134894       -2.4769301681        0.6196137925
 H         -3.9057086201       -1.8891893875        0.4657465854
 H         -2.0351284321       -2.5631242915        2.7982188590
 H         -3.1333079332       -3.7143849001        2.0120019889
 H         -3.7801098745       -2.3479202766        2.9372289089
 H         -3.0780037600        0.0739444207       -0.5984431033
 H         -2.6453103449        2.3125446184        1.2605612067
 H         -2.4000182346        3.6357043007       -0.8327366609
 H         -3.8798670170        2.6648087834       -0.9036746246
 H         -2.4368820881        2.1543966210       -1.7960687457
 C          1.1598357045        2.9487474276        0.3194265856
 C          1.8902278062        2.3247958114       -0.7037021363
 C          1.8100778595        3.6284916115        1.3369226982
 C          3.2851638064        2.3838878561       -0.6509576088
 C          3.9320936015        3.0565222023        0.3653970611
 C          3.1926656688        3.6887917191        1.3542029717
 H          1.2200712270        4.0978957237        2.1084532919
 H          5.0099725097        3.0894076498        0.3906371017
 H          3.6929270864        4.2195859742        2.1493361915
 H          3.8546038317        1.8965457605       -1.4287732979
 C          1.2519684194        1.6445841421       -1.8375389606
 O          0.0741687750        1.6298797706       -2.0949727556
 H          1.9783000115        1.1214640855       -2.4890924651
