  56
        -94.15025384
 C         -0.5371987027       -2.2495716874       -1.8781589671
 C         -0.5275882844       -1.6473462619       -3.2801944821
 C         -1.8697641948       -1.9579418513       -1.1779118669
 O         -2.8292496455       -1.4780128237       -1.7618330587
 O          1.9412743976       -3.4533350321       -1.1011779063
 O          0.4415320409       -1.8918123079        1.8699976936
 N          0.5187596569       -1.6907468472       -1.0563393214
 C          1.6168325248       -2.3652223509       -0.6701522046
 C          2.4227824421       -1.6447283683        0.4215675883
 C          1.8274600385       -2.0923459341        1.7742261235
 N          3.8347993223       -1.9773033054        0.4032166288
 N         -1.8772676430       -2.2390057243        0.1345611467
 C         -2.9605844629       -1.8297032616        1.0154170503
 C         -2.9772664070       -2.7067704043        2.2545859708
 C         -2.7153324688       -0.3534313747        1.3772204717
 O         -2.3718973417        0.0289734524        2.4748844773
 N         -2.8974788877        0.4785375894        0.3240879722
 O         -0.2119898527        0.6775097253        0.5284464400
 O         -0.2358729237        2.9098603184        0.3660196359
 C         -2.3425564171        1.8101815901        0.3569287654
 C         -0.8225805547        1.7116392625        0.4050423920
 C         -2.8137895597        2.6297632698       -0.8363462224
 H         -0.3678616883       -3.3319907990       -1.9299399236
 H         -1.3804447751       -2.0172631174       -3.8413258335
 H          0.3899960709       -1.9178397513       -3.7954969737
 H         -0.6009724507       -0.5640379798       -3.2160671943
 H          0.2409443259       -0.9463084508        1.8155039085
 H          0.3205316685       -0.7961881727       -0.6304908318
 H          2.3134820751       -0.5581699552        0.3195931292
 H          2.3642325684       -1.5781591730        2.5806912485
 H          1.9814503316       -3.1692051575        1.8857121775
 H          3.9236156348       -2.9906280754        0.4069893898
 H          4.2509249122       -1.6569087089       -0.4659356919
 H         -1.0139969861       -2.4883802668        0.6080626444
 H         -3.8961774498       -1.9081893300        0.4501060082
 H         -3.1228310823       -3.7478000338        1.9795277169
 H         -3.7797477591       -2.3940621679        2.9161838349
 H         -2.0332157012       -2.6005245245        2.7832923013
 H         -3.0728860380        0.0691894220       -0.5895361047
 H         -2.6473772318        2.2834481655        1.3012961361
 H         -3.8996658095        2.6637150824       -0.8477064211
 H         -2.4607913592        2.1754859384       -1.7589341771
 H         -2.4247497961        3.6417179971       -0.7726243386
 C          1.1493946542        2.9511459363        0.3216189194
 C          1.8692404964        2.3346128671       -0.7134492873
 C          1.8098831037        3.6281584203        1.3342701136
 C          3.2644661602        2.3983417451       -0.6779600722
 C          3.9216732720        3.0682231749        0.3336054788
 C          3.1924065971        3.6930337026        1.3346156735
 H          1.2280606874        4.0918935994        2.1153802525
 H          4.9996563874        3.1050510413        0.3454712633
 H          3.7007623799        4.2216924448        2.1260228370
 H          3.8256916418        1.9170588966       -1.4654683448
 C          1.2189474195        1.6578894354       -1.8424073474
 O          0.0377658788        1.6390930508       -2.0836041945
 H          1.9386402000        1.1422352120       -2.5070473799
