  56
        -94.15025343
 C         -0.5373481635       -2.2489162871       -1.8790851360
 C         -0.5274481619       -1.6468575276       -3.2811749517
 C         -1.8699687113       -1.9569466814       -1.1790812871
 O         -2.8290420893       -1.4761854910       -1.7629895979
 O          1.9399717837       -3.4536911385       -1.1004998576
 O          0.4399235532       -1.8927529016        1.8699379320
 N          0.5186477232       -1.6901133188       -1.0572411597
 C          1.6160201000       -2.3651976625       -0.6700400818
 C          2.4214808229       -1.6450733627        0.4222514846
 C          1.8258810882       -2.0933375546        1.7745703036
 N          3.8335429743       -1.9773803058        0.4040924863
 N         -1.8779612987       -2.2386620051        0.1332308894
 C         -2.9614252023       -1.8295238686        1.0139645114
 C         -2.9789751425       -2.7075132496        2.2524749854
 C         -2.7158373922       -0.3535859298        1.3769338062
 O         -2.3732749963        0.0279145480        2.4751659463
 N         -2.8966870632        0.4791928609        0.3242266297
 O         -0.2112256268        0.6775028567        0.5296960598
 O         -0.2345355181        2.9098248129        0.3666916619
 C         -2.3415027228        1.8106804762        0.3585684363
 C         -0.8215345305        1.7117677170        0.4062015794
 C         -2.8129796147        2.6319776988       -0.8334379201
 H         -0.3681011823       -3.3313653302       -1.9306819429
 H         -1.3802926718       -2.0167370412       -3.8423562639
 H          0.3901667413       -1.9175767189       -3.7963159211
 H         -0.6007133693       -0.5635319782       -3.2172089085
 H          0.2394764983       -0.9472056050        1.8156502500
 H          0.3203703511       -0.7956434241       -0.6312091723
 H          2.3120832831       -0.5584861412        0.3207216656
 H          2.3624013801       -1.5796114609        2.5814951565
 H          1.9797439544       -3.1702577619        1.8855749275
 H          4.2497115104       -1.6569561311       -0.4650382821
 H          3.9225856000       -2.9906804930        0.4080121521
 H         -1.0149950700       -2.4887372445        0.6069036524
 H         -3.8968151462       -1.9072252023        0.4482173191
 H         -3.7811170556       -2.3944298864        2.9143111143
 H         -2.0348126443       -2.6025574573        2.7812405030
 H         -3.1255922131       -3.7482195626        1.9767095914
 H         -3.0715901012        0.0706023536       -0.5898230210
 H         -2.6459798327        2.2826280575        1.3037041624
 H         -2.4242383974        3.6439471103       -0.7682001351
 H         -3.8988686250        2.6656545947       -0.8447886453
 H         -2.4598437669        2.1791831236       -1.7566974156
 C          1.1507226373        2.9508472063        0.3217927573
 C          1.8700978363        2.3339340816       -0.7133721918
 C          1.8116635876        3.6281334255        1.3339608844
 C          3.2653342562        2.3975951548       -0.6784735459
 C          3.9229851376        3.0677673767        0.3326026703
 C          3.1941836898        3.6929353072        1.3337191432
 H          1.2301688629        4.0923072393        2.1150574227
 H          5.0009889534        3.1042746256        0.3441705304
 H          3.7029001007        4.2217762395        2.1247657362
 H          3.8262217586        1.9157904377       -1.4659004082
 C          1.2192594099        1.6568444008       -1.8417873023
 O          0.0380175486        1.6384473862       -2.0826407898
 H          1.9386397484        1.1413138312       -2.5068559689
