  56
        -94.15023663
 C         -0.5363996716       -2.2259718480       -1.8898063653
 C         -0.5207514663       -1.6127488399       -3.2869230956
 C         -1.8690629223       -1.9338165980       -1.1900331891
 O         -2.8227321341       -1.4375664342       -1.7695973767
 O          1.9333045708       -3.4490983719       -1.1186236286
 O          0.4278946776       -1.9173425046        1.8643184422
 N          0.5201696498       -1.6794374692       -1.0601555675
 C          1.6126856209       -2.3644127076       -0.6762061825
 C          2.4171366605       -1.6618616774        0.4281787028
 C          1.8131243270       -2.1241506514        1.7721161856
 N          3.8273872434       -2.0019187167        0.4125636990
 N         -1.8830314082       -2.2348126273        0.1180335936
 C         -2.9666714528       -1.8315253083        1.0011737980
 C         -2.9941084075       -2.7277603840        2.2263661609
 C         -2.7125238278       -0.3628789693        1.3868342604
 O         -2.3666928198       -0.0005764032        2.4905592888
 N         -2.8903401853        0.4872919406        0.3476744639
 O         -0.2031586189        0.6764891969        0.5448305905
 O         -0.2206129296        2.9096162663        0.3920668424
 C         -2.3315577727        1.8165775108        0.4037675623
 C         -0.8114587719        1.7132832770        0.4326378664
 C         -2.8160258501        2.6647380848       -0.7638114617
 H         -0.3718599350       -3.3087104468       -1.9501481298
 H         -1.3676070000       -1.9832351503       -3.8567000909
 H          0.4017802716       -1.8744822250       -3.7979716106
 H         -0.6013462140       -0.5305221727       -3.2151774836
 H          0.2325587964       -0.9700697957        1.8239004451
 H          0.3237310608       -0.7898972815       -0.6230603618
 H          2.3138986633       -0.5735634837        0.3397101340
 H          2.3490539053       -1.6239264465        2.5878230159
 H          1.9607313595       -3.2032574305        1.8697385376
 H          4.2505309943       -1.6701266020       -0.4488577710
 H          3.9105684073       -3.0156758660        0.4011228584
 H         -1.0228534785       -2.4958342215        0.5908699316
 H         -3.9005890276       -1.8947081295        0.4312188199
 H         -3.1430471258       -3.7636369176        1.9341524550
 H         -3.7986887740       -2.4217407906        2.8885459646
 H         -2.0523880972       -2.6342190931        2.7615791855
 H         -3.0652297767        0.0940520617       -0.5731266353
 H         -2.6241530920        2.2674371269        1.3629655478
 H         -3.9018764747        2.7010105181       -0.7604754007
 H         -2.4757885224        2.2312093163       -1.7010491635
 H         -2.4240646812        3.6742056838       -0.6814767085
 C          1.1636989815        2.9460175510        0.3233032028
 C          1.8617319593        2.3331435657       -0.7287576054
 C          1.8456100324        3.6150613412        1.3269817692
 C          3.2575134700        2.3921771562       -0.7197829011
 C          3.9361120390        3.0542875022        0.2827547434
 C          3.2281192199        3.6755437010        1.3011006685
 H          1.2804780053        4.0764980178        2.1215858798
 H          5.0142335027        3.0879789890        0.2740602217
 H          3.7533031288        4.1983061880        2.0853996550
 H          3.8017786908        1.9138079279       -1.5208646673
 C          1.1873628294        1.6661206484       -1.8492183620
 O          0.0016644197        1.6543686972       -2.0679024109
 H          1.8918429975        1.1514593598       -2.5306195934
