  56
        -94.15023399
 C         -0.5224971363       -2.2249121168       -1.8909653875
 C         -0.5119412116       -1.6097730720       -3.2872853818
 C         -1.8566741661       -1.9422848776       -1.1900233407
 O         -2.8140392921       -1.4520332497       -1.7685839753
 O          1.9532302366       -3.4351262513       -1.1181980458
 O          0.4397181965       -1.9139291512        1.8647392634
 N          0.5311477771       -1.6725760138       -1.0614157496
 C          1.6267337365       -2.3520031063       -0.6762439924
 C          2.4269450038       -1.6449897042        0.4284120493
 C          1.8262206727       -2.1117684334        1.7722298468
 N          3.8393590779       -1.9759507180        0.4123993236
 N         -1.8678146842       -2.2445353778        0.1177583730
 C         -2.9535229373       -1.8494534638        1.0020516707
 C         -2.9737679435       -2.7470359618        2.2264094526
 C         -2.7090300625       -0.3795188351        1.3889848064
 O         -2.3649218878       -0.0160499893        2.4928774611
 N         -2.8933695218        0.4706587059        0.3509281408
 O         -0.2079487444        0.6751356748        0.5452044741
 O         -0.2371470381        2.9079852062        0.3932563147
 C         -2.3426643699        1.8033060179        0.4081747389
 C         -0.8219906658        1.7087170713        0.4343015024
 C         -2.8345643485        2.6506375396       -0.7568541054
 H         -0.3509428208       -3.3064754988       -1.9528039214
 H         -0.5997071641       -0.5282122182       -3.2140500017
 H         -1.3568489572       -1.9850519725       -3.8568111428
 H          0.4118445605       -1.8647036008       -3.7995072648
 H          0.2381982462       -0.9679387417        1.8246329054
 H          0.3293425842       -0.7845448421       -0.6236919474
 H          2.3168444365       -0.5573150279        0.3405242042
 H          2.3590653674       -1.6084776172        2.5880798152
 H          1.9807317120       -3.1899610826        1.8693290659
 H          4.2598407706       -1.6424162055       -0.4496537351
 H          3.9291643328       -2.9891417813        0.4021526628
 H         -1.0056743140       -2.5003146728        0.5898841267
 H         -3.8874471359       -1.9184446361        0.4327786121
 H         -3.7787580404       -2.4460707354        2.8903984491
 H         -2.0315641278       -2.6488032486        2.7599355221
 H         -3.1175159753       -3.7834416522        1.9334756230
 H         -3.0661073249        0.0772959867       -0.5702221016
 H         -2.6361827343        2.2505568802        1.3687816617
 H         -2.4931983571        2.2211640551       -1.6955325908
 H         -2.4489626603        3.6624436278       -0.6731761446
 H         -3.9206187952        2.6798911427       -0.7515405081
 C          1.1470210399        2.9494902968        0.3223510271
 C          1.8449230296        2.3428327813       -0.7334125336
 C          1.8287826319        3.6162385995        1.3276050447
 C          3.2405325185        2.4058800419       -0.7267893853
 C          3.9190487383        3.0654364886        0.2774889170
 C          3.2111114096        3.6804147573        1.2996715666
 H          1.2638274145        4.0727349622        2.1251839290
 H          4.9970643964        3.1018915300        0.2672435489
 H          3.7362481274        4.2009590539        2.0854718637
 H          3.7846792366        1.9323833340       -1.5308445250
 C          1.1703324625        1.6774305072       -1.8546698177
 O         -0.0161804226        1.6586976199       -2.0683972931
 H          1.8753760062        1.1710606841       -2.5416688318
