  56
        -94.15025271
 C         -0.5473199520       -2.2450628610       -1.8795230156
 C         -0.5367174976       -1.6404412769       -3.2805030414
 C         -1.8778740830       -1.9486713426       -1.1773128891
 O         -2.8359151141       -1.4637194987       -1.7594589248
 O          1.9220556385       -3.4650951054       -1.0989152840
 O          0.4333544817       -1.8942952213        1.8702524292
 N          0.5121630503       -1.6923022204       -1.0581237530
 C          1.6050204052       -2.3740588877       -0.6697726756
 C          2.4154158896       -1.6576051336        0.4213395836
 C          1.8183022573       -2.1013962437        1.7744485129
 N          3.8255580491       -1.9980263052        0.4025107045
 N         -1.8850182046       -2.2316756368        0.1347042761
 C         -2.9650525921       -1.8188786048        1.0179451030
 C         -2.9824699191       -2.6969794492        2.2563778949
 C         -2.7132561387       -0.3439304765        1.3806277688
 O         -2.3659211763        0.0360212709        2.4779249236
 N         -2.8944442583        0.4898849672        0.3288011136
 O         -0.2077457075        0.6783369625        0.5271772272
 O         -0.2234105692        2.9109432988        0.3676830528
 C         -2.3343580325        1.8193554663        0.3622068981
 C         -0.8146633490        1.7149501296        0.4065330471
 C         -2.8054516694        2.6425367948       -0.8286289017
 H         -0.3828089239       -3.3281214481       -1.9332281464
 H         -1.3913552908       -2.0063244709       -3.8415692225
 H          0.3794592678       -1.9132742322       -3.7970868063
 H         -0.6062523386       -0.5569907929       -3.2144496947
 H          0.2370882340       -0.9479009964        1.8155050221
 H          0.3193068991       -0.7962768450       -0.6328837685
 H          2.3120828621       -0.5705031796        0.3189711797
 H          2.3576162534       -1.5891956825        2.5804786342
 H          1.9672041261       -3.1788963033        1.8866430659
 H          3.9087648973       -3.0118216423        0.4069400572
 H          4.2431028514       -1.6804187251       -0.4669820148
 H         -1.0222278078       -2.4854403699        0.6067367471
 H         -3.9020983811       -1.8932117202        0.4544984929
 H         -3.7819443312       -2.3814281928        2.9202585520
 H         -2.0366288198       -2.5951570797        2.7827629594
 H         -3.1331122172       -3.7371497213        1.9807837906
 H         -3.0729382591        0.0821785422       -0.5849808403
 H         -2.6350693867        2.2923101618        1.3080505634
 H         -2.4567792508        2.1881624534       -1.7528115481
 H         -2.4121290086        3.6528031230       -0.7644855897
 H         -3.8912081357        2.6809192950       -0.8370138370
 C          1.1619010488        2.9468671460        0.3199818500
 C          1.8767345594        2.3295132012       -0.7180593334
 C          1.8275739188        3.6192520007        1.3323192840
 C          3.2722717143        2.3879687037       -0.6861271298
 C          3.9346306749        3.0534209703        0.3250071817
 C          3.2103312005        3.6788557056        1.3292279293
 H          1.2495467347        4.0836140889        2.1158693456
 H          5.0127715816        3.0862320034        0.3340975936
 H          3.7227390496        4.2039558628        2.1203888155
 H          3.8296099217        1.9061236451       -1.4760491044
 C          1.2209403688        1.6570777026       -1.8463931387
 O          0.0390732263        1.6432416920       -2.0845999232
 H          1.9369332328        1.1395901421       -2.5136146137
