  56
        -94.15322499
 C         -1.6415775522       -2.2402063793       -0.3117901446
 C         -0.6914746504       -3.3782733969        0.0205010802
 C         -0.9389784192       -1.1409965074       -1.1257947980
 O          0.2768172632       -1.0312083061       -1.1666226066
 O         -3.9435959494       -0.6460608532       -0.0129696660
 O         -1.1106466651       -0.2262414343        3.0112371962
 N         -2.1231255522       -1.6202648113        0.9117256819
 C         -3.1940932830       -0.8105647521        0.9413050115
 C         -3.4202610026       -0.1090688747        2.2847369036
 C         -2.1556497365        0.6697695162        2.6816355473
 N         -4.5442956384        0.8049840410        2.2446255578
 N         -1.7923235460       -0.3102522593       -1.7444785049
 C         -1.3386902798        0.9574356807       -2.2966936261
 C         -2.4723661948        1.6132838008       -3.0685917439
 C         -0.9196125242        1.8266738595       -1.1005647838
 O         -1.7098934190        2.1357911049       -0.2295429157
 N          0.3779987299        2.1886718668       -1.0877199647
 O          1.1503710463        1.0150916548        1.8289619708
 O          2.5578189604        0.9936548033        0.0670492763
 C          0.9982831445        2.7274593953        0.1107180888
 C          1.5793104628        1.5012718016        0.8139815155
 C          2.0594275049        3.7588734748       -0.2433492509
 H         -2.5155859702       -2.5975575218       -0.8685281938
 H         -0.4063049672       -3.8995728076       -0.8891819029
 H         -1.1670179769       -4.0792538079        0.7010360875
 H          0.2092686066       -2.9788993658        0.4823484243
 H         -0.2657264031        0.2121962267        2.8336012943
 H         -1.4726651097       -1.5357306342        1.6900539628
 H         -3.6156758972       -0.8726995418        3.0486049315
 H         -2.4037386948        1.2945249416        3.5489318098
 H         -1.8702723982        1.3224385239        1.8497131952
 H         -5.3467366535        0.3244632139        1.8474775985
 H         -4.3211106666        1.5653315377        1.6074351769
 H         -2.7728815805       -0.3540298082       -1.4624889495
 H         -0.4740196699        0.7602256601       -2.9384437272
 H         -2.8374241887        0.9439081269       -3.8432557256
 H         -2.1261045837        2.5349695169       -3.5286906370
 H         -3.2853843371        1.8460877154       -2.3843603743
 H          1.0267162940        1.7612777340       -1.7444166728
 H          0.2052803019        3.1524915115        0.7346201457
 H          2.8176240369        3.3062731633       -0.8771038761
 H          2.5291685745        4.1394560687        0.6598507584
 H          1.5999227892        4.5862882268       -0.7771365395
 C          2.9850111610       -0.3092098141        0.2205890437
 C          3.0114525483       -1.1024872086       -0.9370409959
 C          3.3653014634       -0.8259362250        1.4474922604
 C          3.4343452876       -2.4250163139       -0.8209603893
 C          3.8246993935       -2.9408931009        0.3997264449
 C          3.7869621382       -2.1426953242        1.5320254824
 H          3.3238767670       -0.2039835622        2.3276074619
 H          4.1491968161       -3.9676030903        0.4738192611
 H          4.0811640593       -2.5451832742        2.4893270966
 H          3.4477788100       -3.0477764724       -1.7032204716
 C          2.5426528109       -0.6011789655       -2.2352870838
 O          2.3055943551        0.5441484651       -2.5335059597
 H          2.4411320285       -1.4061096281       -2.9864505491
