  56
        -94.15023234
 C         -0.5459785880       -2.2205031004       -1.8919671361
 C         -0.5275500375       -1.6038570666       -3.2875366017
 C         -1.8774670122       -1.9241858273       -1.1916513985
 O         -2.8290358275       -1.4228186791       -1.7702284498
 O          1.9169127808       -3.4576150469       -1.1216466900
 O          0.4174189797       -1.9235097968        1.8635336427
 N          0.5129140088       -1.6807857772       -1.0608088343
 C          1.6016001188       -2.3721261295       -0.6773573396
 C          2.4088965743       -1.6760351508        0.4290302061
 C          1.8015065900       -2.1378883747        1.7716074516
 N          3.8172944028       -2.0236959705        0.4138895859
 N         -1.8927355676       -2.2278910275        0.1157776054
 C         -2.9742275556       -1.8212027795        0.9999431258
 C         -3.0059829257       -2.7200483506        2.2231267917
 C         -2.7125642500       -0.3547592095        1.3889001417
 O         -2.3653818705        0.0033789840        2.4935679424
 N         -2.8854802868        0.4986204097        0.3515990731
 O         -0.1970676762        0.6771659831        0.5475955315
 O         -0.2063289401        2.9105152954        0.3968654628
 C         -2.3213867369        1.8254794513        0.4114079360
 C         -0.8016406951        1.7163320591        0.4372694481
 C         -2.8050586988        2.6799027579       -0.7519061147
 H         -0.3861966956       -3.3038043696       -1.9550108083
 H         -0.6038190386       -0.5215076778       -3.2130707660
 H         -1.3758529716       -1.9694485308       -3.8583169970
 H          0.3939658539       -1.8680609307       -3.7991545466
 H          0.2274146593       -0.9750751638        1.8251048676
 H          0.3208531516       -0.7909893430       -0.6222695536
 H          2.3115068046       -0.5870340224        0.3426799340
 H          2.3397836348       -1.6424865709        2.5886999776
 H          1.9429999298       -3.2180201314        1.8669369303
 H          4.2432636921       -1.6914929815       -0.4459685318
 H          3.8949192557       -3.0378612260        0.3993881944
 H         -1.0336498088       -2.4934646638        0.5880815137
 H         -3.9085405342       -1.8783823867        0.4300037164
 H         -3.1607262834       -3.7544424941        1.9286774504
 H         -3.8085286396       -2.4111021693        2.8864116660
 H         -2.0634842139       -2.6328326259        2.7580343684
 H         -3.0624372834        0.1087186379       -0.5701891886
 H         -2.6104404906        2.2736779958        1.3729460641
 H         -2.4681716741        2.2487624298       -1.6914447314
 H         -2.4093507882        3.6876417630       -0.6664096808
 H         -3.8907665188        2.7200212309       -0.7463191884
 C          1.1778313414        2.9420898874        0.3236237732
 C          1.8700080341        2.3294314595       -0.7324360287
 C          1.8656118213        3.6067215148        1.3262329410
 C          3.2659755235        2.3844655464       -0.7288449155
 C          3.9504007983        3.0422720810        0.2725582112
 C          3.2481897500        3.6630937838        1.2951691162
 H          1.3049562915        4.0681115253        2.1240270095
 H          5.0285735109        3.0729601733        0.2596859708
 H          3.7779692578        4.1823610560        2.0786979652
 H          3.8056877416        1.9064544806       -1.5332194846
 C          1.1893345891        1.6667850778       -1.8516128688
 O          0.0025488590        1.6572118201       -2.0645377043
 H          1.8897657963        1.1532446945       -2.5379929767
