  56
        -94.15015792
 C         -1.3549979453       -2.1514305899       -0.7972793298
 C         -0.4830221530       -3.3802809368       -0.6098004143
 C         -0.6880858429       -1.0946948887       -1.6952577048
 O          0.4883312065       -1.1264105630       -2.0028081283
 O         -3.6872894943       -0.7872213465       -0.0381418746
 O         -4.8797548667       -0.9409435106        2.6257192996
 N         -1.6013175457       -1.4869772798        0.4705668745
 C         -2.7106688606       -0.7713374906        0.7013164951
 C         -2.7185725966       -0.0030660638        2.0119472411
 C         -3.5373755309       -0.8470451307        3.0080752420
 N         -1.3576570648        0.2158177261        2.4785794758
 N         -1.5404026975       -0.1117727459       -2.0480514294
 C         -1.0496842361        1.1968129607       -2.4361482143
 C         -2.1535077441        1.9934919818       -3.1174798020
 C         -0.5945150862        1.9042154127       -1.1471701832
 O         -1.2694781365        1.8751807957       -0.1343335330
 N          0.5771302758        2.5588491045       -1.2414503801
 O          3.2371784718        1.9139155650        0.8850216332
 O          1.3187037860        0.7610867099        0.6286933318
 C          1.2806823594        3.0162095147       -0.0597562891
 C          2.1018297834        1.8560841524        0.5127906505
 C          2.1770027261        4.2000877177       -0.3815373875
 H         -2.3333979588       -2.4190893276       -1.2121265518
 H          0.5098145310       -3.0848892147       -0.2802473647
 H         -0.3860309503       -3.9058354109       -1.5554790797
 H         -0.9247985235       -4.0474785978        0.1254295094
 H         -4.9167088851       -1.0376651437        1.6612442306
 H         -0.8224107151       -1.3388249778        1.0989065434
 H         -3.2748007459        0.9312250808        1.8308192011
 H         -3.5233968985       -0.3774605517        3.9967391222
 H         -3.0774876489       -1.8449568721        3.0922377709
 H         -1.3811807348        0.6784329164        3.3825123634
 H         -0.9101905558        0.8556176785        1.8239804658
 H         -2.4702504894       -0.1236125749       -1.6432484719
 H         -0.1951965385        1.0449573938       -3.1026658316
 H         -2.5209150282        1.4562685295       -3.9881094898
 H         -1.7763661882        2.9632365424       -3.4313563752
 H         -2.9760051355        2.1454034161       -2.4218136498
 H          1.1817055996        2.3589573605       -2.0266832874
 H          0.5161127492        3.2796026284        0.6823951534
 H          1.5857267872        5.0270519038       -0.7644682432
 H          2.9145811241        3.9078360761       -1.1246585383
 H          2.7027841145        4.5161827596        0.5144073075
 C          1.9210526746       -0.4716579558        0.7800963152
 C          2.7418764523       -0.9882559704       -0.2318445142
 C          1.6258619878       -1.2206041671        1.9094115016
 C          3.2789177462       -2.2645966097       -0.0590218445
 C          3.0146449499       -2.9991403153        1.0799379683
 C          2.1783490429       -2.4811543730        2.0584467410
 H          0.9642870867       -0.8043504246        2.6545516705
 H          3.4461757250       -3.9806437740        1.2023671909
 H          1.9546203369       -3.0593854117        2.9418742735
 H          3.9083363801       -2.6726747486       -0.8358596415
 C          2.9887288908       -0.2688807621       -1.4858426110
 O          2.7316307396        0.8870579589       -1.7199485310
 H          3.4678070302       -0.9008492134       -2.2545292804
