  56
        -94.15015790
 C         -3.1084722563       -1.9993775952       -1.3336457104
 C         -3.4576767458       -1.9130571174       -2.8105078454
 C         -3.2553820841       -0.6267154476       -0.6513104277
 O         -3.5095959778        0.3990344949       -1.2642314288
 O         -1.9468905722       -3.1864067540        0.9702627731
 O          0.8544386092       -1.8233319932       -1.7084018369
 N         -1.7553493571       -2.5077037378       -1.1805971966
 C         -1.2865473354       -3.0635410290       -0.0560471500
 C          0.1650083285       -3.5455548268       -0.1395209505
 C          1.0838181756       -2.3403470935       -0.4169078429
 N          0.6033674644       -4.2084208976        1.0719269685
 N         -3.0932089338       -0.6861617694        0.6757676309
 C         -3.0999310724        0.4873962165        1.5336862796
 C         -3.1502287024        0.0571401574        2.9892710711
 C         -1.8251730237        1.2889435733        1.2303467076
 O         -0.7863465827        1.1700225729        1.8549581472
 N         -1.9525666356        2.1280287344        0.1860362639
 O          0.3565355381        0.7321841127       -0.7342053605
 O          1.4856724900        2.3729992136        0.3054015594
 C         -0.7666026732        2.8171987125       -0.2898575828
 C          0.3982816965        1.8331815761       -0.2417768885
 C         -0.9781016784        3.3043099439       -1.7172477283
 H         -3.7770264702       -2.6988032981       -0.8144189580
 H         -4.4820555665       -1.5710985664       -2.9265465384
 H         -3.3484060865       -2.8855685193       -3.2828689327
 H         -2.8033965333       -1.1975425869       -3.3027487809
 H          0.7751869728       -0.8620468343       -1.6288190713
 H         -1.0722884377       -2.2760972989       -1.8958003211
 H          0.2598928699       -4.2461631327       -0.9767906600
 H          2.1230134082       -2.6817621965       -0.3324618723
 H          0.9095534767       -1.5747455497        0.3449497682
 H          0.0334841032       -5.0325972889        1.2340552601
 H          0.4459920826       -3.5910166055        1.8638802762
 H         -2.8106856647       -1.5757260868        1.0907074562
 H         -3.9698331414        1.1015879275        1.2693039343
 H         -2.2397565643       -0.4809224046        3.2418934404
 H         -4.0081425816       -0.5868883400        3.1630178970
 H         -3.2231024322        0.9300985690        3.6320949047
 H         -2.6962450084        1.9304989245       -0.4837236614
 H         -0.5364125180        3.6510378456        0.3847378657
 H         -0.0953544534        3.8285911191       -2.0740746158
 H         -1.8270021504        3.9821502723       -1.7514978357
 H         -1.1752351404        2.4561478252       -2.3692857487
 C          2.5643844625        1.5295937753        0.5637789297
 C          3.7953460157        1.7584074433       -0.0594262377
 C          2.4036533267        0.4847334163        1.4588320933
 C          4.8599367591        0.9044631562        0.2365055561
 C          4.6995729841       -0.1454182347        1.1177448523
 C          3.4723950389       -0.3528614467        1.7309757059
 H          1.4424193910        0.3542662469        1.9336037469
 H          5.5277372436       -0.8033068043        1.3318043412
 H          3.3437736203       -1.1710006716        2.4230452684
 H          5.8049070632        1.0919213159       -0.2509575263
 C          3.9791582844        2.8630324542       -1.0096433653
 O          4.9995219314        3.1007461080       -1.6026305028
 H          3.0770583524        3.4888567266       -1.1477941349
