  56
        -94.15014115
 C         -0.4172692605        0.1664919753       -2.8765845261
 C          0.4249063953       -0.6516253687       -3.8397062739
 C          0.4467129516        1.1164654147       -2.0260881617
 O          1.6542417429        0.9985957062       -1.9352777191
 O         -2.8209628164        0.7122755403       -1.5397059595
 O         -4.8537585435       -0.1608960396        0.0771214897
 N         -1.1209632766       -0.7081166116       -1.9537206933
 C         -2.2399713380       -0.3449348712       -1.3150677517
 C         -2.7482954118       -1.3635895692       -0.3026728260
 C         -4.2939296108       -1.3791855549       -0.3083263368
 N         -2.1484715721       -2.6684130034       -0.5476576591
 N         -0.2798171929        2.0580685809       -1.3941337286
 C          0.2164691061        2.7026005537       -0.1965547788
 C         -0.4257584112        4.0738569534       -0.0199078179
 C         -0.1162479962        1.7854448613        0.9830576844
 O         -0.8776347437        0.8402840662        0.8621137204
 N          0.4590823426        2.0772177990        2.1643295027
 O         -0.3695025413       -1.2230141218        2.9136956480
 O          1.4019331628       -0.3344012494        1.7994899760
 C          0.2842152867        1.1041045224        3.2339213762
 C          0.3411492031       -0.3045064588        2.6201266426
 C          1.3765703720        1.2624953164        4.2816621585
 H         -1.1754606945        0.7524132471       -3.4092482669
 H          0.8988532859        0.0069359939       -4.5618925310
 H         -0.1945188357       -1.3729250268       -4.3662692512
 H          1.2038387729       -1.1742485853       -3.2897053363
 H         -4.3995430277        0.5259283586       -0.4414002800
 H         -0.6591668912       -1.5443736709       -1.6202836557
 H         -2.4039810506       -1.0005685244        0.6732513718
 H         -4.6550084064       -2.1311815148        0.4018992796
 H         -4.6366308125       -1.6657258260       -1.3195985543
 H         -2.6033118292       -3.1104714769       -1.3419691596
 H         -2.2933598325       -3.2664623047        0.2580075970
 H         -1.2921540159        1.9565815759       -1.4353386203
 H          1.3059375753        2.7792993377       -0.2841061326
 H         -0.0550210813        4.5535514999        0.8814834730
 H         -1.5058037251        3.9686360740        0.0568284097
 H         -0.1956082323        4.7025677106       -0.8761568072
 H          1.3036782946        2.6287961148        2.1730573571
 H         -0.7114029013        1.2285552140        3.6765559992
 H          1.2556649231        0.5146090557        5.0609335171
 H          1.3197297792        2.2501317262        4.7334009336
 H          2.3518078920        1.1358015927        3.8165001087
 C          1.6381863341       -1.2383113017        0.8023201075
 C          2.6194279499       -0.8488564022       -0.1300676627
 C          0.9749194329       -2.4488338863        0.6622329127
 C          2.9329357900       -1.7213535157       -1.1699295470
 C          2.2768073630       -2.9295101091       -1.3055355255
 C          1.2910362999       -3.2827672869       -0.3964776447
 H          0.2098841650       -2.7234024266        1.3684991480
 H          2.5249945368       -3.5930493699       -2.1204610762
 H          0.7618399414       -4.2168858151       -0.5066587833
 H          3.6853579474       -1.4237948988       -1.8849305314
 C          3.2659993426        0.4709750107       -0.0847737697
 O          3.0533267392        1.3550731321        0.7101674641
 H          4.0246808055        0.5978709509       -0.8770974371
