  56
        -94.15013367
 C         -2.5795315297        0.6390419830       -2.1298718790
 C         -2.0453419148        0.4963254054       -3.5439796520
 C         -2.0836447193        1.9305928332       -1.4637996741
 O         -1.1578302549        2.5997609633       -1.8904630535
 O         -3.7383643327       -0.3161125382        0.2459856551
 O         -0.6530200996       -0.9574897354        2.2293038773
 N         -2.1112914190       -0.4695266894       -1.3083540386
 C         -2.7164848765       -0.8452556011       -0.1739240860
 C         -2.0929118156       -2.0356549223        0.5445437154
 C         -1.8378847200       -1.6864706153        2.0348591325
 N         -3.0151408073       -3.1465019721        0.3645106163
 N         -2.7480636531        2.2102589359       -0.3296723924
 C         -2.2250623815        3.1528316539        0.6471671363
 C         -3.2896353727        3.4764367577        1.6800104961
 C         -1.0129506398        2.4528195604        1.2796156773
 O         -1.0927255982        1.7890591207        2.2993443742
 N          0.1234931733        2.6069678042        0.5770222728
 O          0.5586944656        0.0886636385       -0.4588521298
 O          2.5224254537       -0.0960131815        0.6219213157
 C          1.3392395093        1.9142655924        0.9338281749
 C          1.3944017557        0.5351944352        0.2788625122
 C          2.5566150492        2.7504445804        0.5455012349
 H         -3.6750849459        0.6196132643       -2.1110510030
 H         -2.4462862088        1.2881094120       -4.1704206347
 H         -2.3273680110       -0.4671216542       -3.9598221294
 H         -0.9616691430        0.5854646111       -3.5340378585
 H         -0.8478425289       -0.0064859621        2.2967049154
 H         -1.1691303123       -0.7833631051       -1.4890502028
 H         -1.1379334701       -2.3031554978        0.0793454366
 H         -1.7204579829       -2.6295019303        2.5865756986
 H         -2.7108607158       -1.1585540339        2.4325242086
 H         -3.9464626908       -2.8576992787        0.6482276179
 H         -2.7407277749       -3.9318165267        0.9459249930
 H         -3.4030885702        1.5106809791        0.0208485594
 H         -1.8964711209        4.0508293443        0.1128766448
 H         -2.9174789541        4.2231472115        2.3759718833
 H         -3.5390797226        2.5779214455        2.2393275581
 H         -4.1830603602        3.8560036730        1.1920347747
 H          0.0415942281        2.9399372973       -0.3813253573
 H          1.3163205636        1.7492114153        2.0187222960
 H          2.4997786467        3.7235993592        1.0259440555
 H          2.5840751990        2.8939949239       -0.5327480652
 H          3.4682495924        2.2532866171        0.8634722800
 C          2.6915965844       -1.4240266742        0.2384049365
 C          3.7870938288       -1.7763170652       -0.5580532692
 C          1.8000069517       -2.3849801818        0.6855853618
 C          3.9612526173       -3.1200735815       -0.8954865130
 C          3.0695212070       -4.0791337834       -0.4603907370
 C          1.9909077641       -3.7101193678        0.3304204126
 H          0.9744967160       -2.0792179300        1.3116310467
 H          3.2121509084       -5.1137412542       -0.7323667068
 H          1.2933492824       -4.4573738325        0.6772473435
 H          4.8119247629       -3.3779924626       -1.5083894551
 C          4.7407830807       -0.7702941886       -1.0438835020
 O          5.6942307730       -1.0050282324       -1.7405704220
 H          4.5139398102        0.2604371065       -0.7130503474
