  56
        -94.15013283
 C         -2.5801118068        0.6334708724       -2.1311798890
 C         -2.0448762107        0.4864922981       -3.5444520367
 C         -2.0842158976        1.9266467401       -1.4683363094
 O         -1.1583680155        2.5947665361       -1.8965617108
 O         -3.7427196269       -0.3155489109        0.2450064138
 O         -0.6518296415       -0.9500248920        2.2258092128
 N         -2.1129800233       -0.4728743152       -1.3060511937
 C         -2.7203022264       -0.8460267349       -0.1718955699
 C         -2.0981534888       -2.0346002014        0.5507735910
 C         -1.8383056406       -1.6783847875        2.0386631144
 N         -3.0235168561       -3.1440311754        0.3790179202
 N         -2.7487394349        2.2091131936       -0.3349702847
 C         -2.2261432604        3.1539658148        0.6398605522
 C         -3.2912116756        3.4799153850        1.6714564861
 C         -1.0142321898        2.4552949320        1.2742112046
 O         -1.0940954224        1.7950706413        2.2962690276
 N          0.1220568241        2.6064219744        0.5707805777
 O          0.5592714021        0.0870770689       -0.4625556621
 O          2.5218758853       -0.0956010752        0.6207163507
 C          1.3377518178        1.9144474550        0.9291451149
 C          1.3937959842        0.5345714314        0.2758720382
 C          2.5551399677        2.7504880784        0.5403765975
 H         -3.6756906811        0.6145499102       -2.1131200326
 H         -2.3276777501       -0.4776876878       -3.9580737428
 H         -0.9611101525        0.5743717727       -3.5337794907
 H         -2.4443453262        1.2771594408       -4.1732449420
 H         -0.8460190601        0.0010466767        2.2944809755
 H         -1.1706622372       -0.7873565650       -1.4848698395
 H         -1.1449749712       -2.3068216582        0.0846013476
 H         -1.7208924422       -2.6189174095        2.5946996468
 H         -2.7093352615       -1.1471881841        2.4361197759
 H         -3.9536839472       -2.8509571107        0.6621389325
 H         -2.7503756715       -3.9265093397        0.9648282714
 H         -3.4046743261        1.5110058752        0.0166581682
 H         -1.8973391829        4.0507850780        0.1037264911
 H         -3.5418535296        2.5823398538        2.2317354996
 H         -4.1839558807        3.8596138023        1.1823135281
 H         -2.9189449084        4.2271721285        2.3667692953
 H          0.0401596491        2.9368996148       -0.3884535941
 H          1.3143932084        1.7507811955        2.0142138386
 H          2.4976713165        3.7243598572        1.0192897994
 H          2.5832006035        2.8923766269       -0.5380754218
 H          3.4667464694        2.2541326568        0.8596873664
 C          2.6928006315       -1.4238800226        0.2391920935
 C          3.7916687320       -1.7766115834       -0.5524389545
 C          1.8000559984       -2.3848300877        0.6841078059
 C          3.9678965309       -3.1206993873       -0.8875256223
 C          3.0749929565       -4.0797253876       -0.4547672616
 C          1.9931129032       -3.7103127555        0.3314080295
 H          0.9720996990       -2.0787251362        1.3067170736
 H          3.2191597206       -5.1145757951       -0.7250295865
 H          1.2946350281       -4.4575447195        0.6764410307
 H          4.8211122819       -3.3788394030       -1.4967952244
 C          4.7470507521       -0.7708238008       -1.0354244991
 O          5.7045071183       -1.0063396502       -1.7263036229
 H          4.5172177343        0.2605310635       -0.7086872029
