  56
        -94.15322234
 C         -1.5985470516       -2.2190975651       -0.3621938240
 C         -0.6236472121       -3.3395833695       -0.0419751537
 C         -0.9137166341       -1.0854543611       -1.1432217374
 O          0.2992960446       -0.9455151405       -1.1690764819
 O         -3.9372318448       -0.6760137690       -0.0548483664
 O         -1.1537489241       -0.2924931407        3.0242508124
 N         -2.1096809752       -1.6385654563        0.8687454733
 C         -3.1962796888       -0.8506045791        0.9044957610
 C         -3.4519782314       -0.1863134699        2.2615569279
 C         -2.2037179433        0.5987257882        2.6970281786
 N         -4.5882302657        0.7127278809        2.2274421979
 N         -1.7791308434       -0.2596946318       -1.7520132475
 C         -1.3459342679        1.0314759411       -2.2660557282
 C         -2.4940015000        1.6971293391       -3.0071186203
 C         -0.9284432937        1.8631340539       -1.0429358562
 O         -1.7215046532        2.1494429286       -0.1665576186
 N          0.3713729769        2.2154794917       -1.0115659862
 O          1.1278928616        0.9271279658        1.8559098129
 O          2.5524853952        0.9793723662        0.1079223115
 C          0.9896274622        2.7076880069        0.2077142336
 C          1.5658772868        1.4540873549        0.8653737239
 C          2.0540391532        3.7492259322       -0.1045338687
 H         -2.4562360782       -2.5860761763       -0.9377912965
 H          0.2601195944       -2.9276354855        0.4412071227
 H         -0.3124153401       -3.8327288888       -0.9587838294
 H         -1.0897965963       -4.0677025416        0.6161995267
 H         -0.3098761305        0.1494162895        2.8500556618
 H         -1.4730177642       -1.5637588021        1.6596329000
 H         -3.6478358979       -0.9714410274        3.0032047653
 H         -2.4737190619        1.2001507492        3.5741942478
 H         -1.9130199240        1.2738262682        1.8852226036
 H         -5.3784090676        0.2307303708        1.8081168358
 H         -4.3674451254        1.4913883622        1.6119079075
 H         -2.7614491281       -0.3316384412       -1.4817897749
 H         -0.4835803293        0.8673035033       -2.9202710752
 H         -2.1627718158        2.6366584360       -3.4414570257
 H         -3.3032437631        1.8990341938       -2.3087447238
 H         -2.8583086446        1.0476162463       -3.7988581400
 H          1.0208877805        1.8075336408       -1.6796254611
 H          0.1957331760        3.1109804672        0.8448151594
 H          2.8119894697        3.3194275006       -0.7542147871
 H          2.5233069932        4.0933220342        0.8134439709
 H          1.5975469230        4.5978828573       -0.6066034055
 C          2.9832469875       -0.3267148776        0.2084724954
 C          3.0372815832       -1.0632520127       -0.9854472941
 C          3.3424739180       -0.9009883500        1.4160258731
 C          3.4671776804       -2.3873080950       -0.9256960592
 C          3.8373460526       -2.9597686454        0.2758248394
 C          3.7710487412       -2.2179896344        1.4446035295
 H          3.2792849214       -0.3235665607        2.3246867316
 H          4.1674696730       -3.9868905408        0.3063337216
 H          4.0483812761       -2.6652784518        2.3869525738
 H          3.5021918332       -2.9662624033       -1.8368089845
 C          2.5848032312       -0.5042924959       -2.2651431430
 O          2.3357658739        0.6504707312       -2.5117990520
 H          2.5025409447       -1.2737043144       -3.0554687778
