  56
        -94.15011693
 C         -2.4882558187       -1.8951136247       -1.5404091247
 C         -2.6490994390       -1.5599323489       -3.0180725033
 C         -3.1508494992       -0.8322048798       -0.6575855972
 O         -3.7463586812        0.1359966626       -1.0996661186
 O         -0.9382043403       -4.1535834674       -0.7507055820
 O         -0.5205059959       -1.9784301656        1.9037963501
 N         -1.0932749892       -1.9301256484       -1.1428453013
 C         -0.4730110883       -3.0334085131       -0.6826849517
 C          0.8661666247       -2.7486190565        0.0141807553
 C          0.5583469186       -2.7949357177        1.5268204784
 N          1.8907962036       -3.7360827863       -0.2698841093
 N         -2.9621131990       -1.0355087813        0.6620554223
 C         -3.1601493473        0.0423434340        1.6208040345
 C         -3.1815042075       -0.4980343736        3.0386835734
 C         -1.9828351396        0.9854387510        1.3571624098
 O         -0.8770857333        0.8503608923        1.8648410883
 N         -2.2250116801        1.9195921190        0.4244949867
 O          0.1153432121        0.7155375857       -0.7270426660
 O          1.1990966770        2.3942812962        0.2975974385
 C         -1.1126344748        2.6999986964       -0.0879640806
 C          0.1127553487        1.7921930191       -0.1825348029
 C         -1.4495351012        3.2476497599       -1.4691469397
 H         -2.9061502732       -2.8851590574       -1.3233364764
 H         -2.1633902044       -0.6120152087       -3.2373718952
 H         -3.7039229903       -1.4711216144       -3.2611863308
 H         -2.2018993554       -2.3397060746       -3.6278671276
 H         -0.2866050527       -1.0362819507        1.8451938111
 H         -0.6216349511       -1.0364006814       -1.0919392061
 H          1.2399824058       -1.7568371887       -0.2620739933
 H          1.4667460282       -2.5479080462        2.0874447490
 H          0.2583672741       -3.8150330122        1.7824723143
 H          2.1753645761       -3.6686304037       -1.2419381788
 H          1.4874605439       -4.6613280693       -0.1428833275
 H         -2.3177822767       -1.7594697372        0.9696487626
 H         -4.0988163035        0.5489211502        1.3731063688
 H         -4.0077141141       -1.1935364814        3.1569097844
 H         -3.3011545444        0.3195825098        3.7442589962
 H         -2.2498371026       -1.0148233400        3.2519522464
 H         -3.0429156573        1.8070286674       -0.1677550718
 H         -0.8791776034        3.5105735765        0.6135031030
 H         -0.6189726947        3.8300031947       -1.8596090212
 H         -2.3266540783        3.8867630254       -1.4079990135
 H         -1.6568385268        2.4256667340       -2.1510687633
 C          2.3817335358        1.6567396452        0.3383644006
 C          3.4825128086        2.0669848129       -0.4208193526
 C          2.4553465850        0.5329798023        1.1436611660
 C          4.6553853675        1.3120736337       -0.3551155996
 C          4.7250947570        0.1814774028        0.4335098806
 C          3.6261305638       -0.2056398270        1.1863152761
 H          1.5935429681        0.2633342833        1.7345585003
 H          5.6328493893       -0.4007008726        0.4666366627
 H          3.6784612379       -1.0886996456        1.8041468220
 H          5.4974151321        1.6400689360       -0.9460790270
 C          3.4215541431        3.2593009508       -1.2771275323
 O          4.3143021053        3.6453315714       -1.9859148781
 H          2.4586979195        3.8018609899       -1.2209811505
