  56
        -94.15011685
 C         -2.4741510646       -1.9053187558       -1.5441991542
 C         -2.6355120346       -1.5730746137       -3.0224191834
 C         -3.1433015601       -0.8453431376       -0.6628053011
 O         -3.7399894610        0.1216995900       -1.1056530874
 O         -0.9096253813       -4.1530367599       -0.7516957477
 O         -0.5154092153       -1.9829679487        1.9067676386
 N         -1.0794351983       -1.9308574510       -1.1448015999
 C         -0.4526167540       -3.0295552572       -0.6825574574
 C          0.8823622527       -2.7349586909        0.0182559996
 C          0.5710972455       -2.7892966071        1.5298846587
 N          1.9172614001       -3.7113734066       -0.2669608237
 N         -2.9588993017       -1.0500538947        0.6573042519
 C         -3.1642915419        0.0256100549        1.6169007613
 C         -3.1879051555       -0.5169349032        3.0339501617
 C         -1.9904629005        0.9747054143        1.3591234937
 O         -0.8853629673        0.8424513471        1.8689584994
 N         -2.2346333646        1.9115481663        0.4296467774
 O          0.1088394274        0.7226335337       -0.7259178835
 O          1.1889999732        2.3994052307        0.3052214833
 C         -1.1245592516        2.6998187357       -0.0757701256
 C          0.1037525132        1.7968278762       -0.1766786732
 C         -1.4621837469        3.2579660684       -1.4525495381
 H         -2.8860352436       -2.8976747666       -1.3261890666
 H         -2.1560164339       -0.6221877636       -3.2423045066
 H         -3.6905905703       -1.4918192028       -3.2670059933
 H         -2.1822716520       -2.3506041918       -3.6305964754
 H         -0.2889929287       -1.0387000258        1.8514629431
 H         -0.6143397570       -1.0337917983       -1.0928816963
 H          1.2474389275       -1.7387780252       -0.2537478646
 H          1.4758964931       -2.5368324407        2.0939320128
 H          0.2788371803       -3.8127528880        1.7810140545
 H          2.2023137825       -3.6384346054       -1.2384885851
 H          1.5232211113       -4.6409785339       -0.1428314768
 H         -2.3135116492       -1.7724783576        0.9660897665
 H         -4.1043554190        0.5285629312        1.3671010522
 H         -3.3140370113        0.2990234311        3.7403315095
 H         -2.2545132627       -1.0295485869        3.2497104520
 H         -4.0111458278       -1.2166114582        3.1481683211
 H         -3.0497272584        1.7968033797       -0.1659867198
 H         -0.8943381293        3.5052465499        0.6326219904
 H         -0.6335080701        3.8469240122       -1.8370680059
 H         -2.3418135976        3.8931679633       -1.3868535191
 H         -1.6655533573        2.4410888701       -2.1417426949
 C          2.3730354499        1.6634952147        0.3403728129
 C          3.4697824958        2.0746471217       -0.4240604768
 C          2.4510641675        0.5393612169        1.1447105744
 C          4.6432549319        1.3201261063       -0.3646518057
 C          4.7173079479        0.1891055861        0.4229690969
 C          3.6223412012       -0.1988461969        1.1811333048
 H          1.5920057489        0.2687737293        1.7392132948
 H          5.6254365204       -0.3927354381        0.4513128112
 H          3.6780595557       -1.0824212210        1.7979097759
 H          5.4822301546        1.6488084289       -0.9595611596
 C          3.4039534633        3.2673171887       -1.2795014516
 O          4.2925650979        3.6535947529       -1.9932852579
 H          2.4413307471        3.8097182801       -1.2178124940
