  56
        -94.15011668
 C         -2.4955712837       -1.8535991251       -1.5649353434
 C         -2.6309121710       -1.5043379683       -3.0418259968
 C         -3.1520070741       -0.7864382404       -0.6824717579
 O         -3.7261340033        0.1946268178       -1.1241980688
 O         -0.9947647797       -4.1402119464       -0.7593739607
 O         -0.5734632297       -1.9922246400        1.9082827392
 N         -1.1065983517       -1.9138538118       -1.1498101640
 C         -0.5112472631       -3.0283216431       -0.6837458190
 C          0.8244782256       -2.7675278302        0.0290394191
 C          0.5005113113       -2.8181965846        1.5382312423
 N          1.8381301443       -3.7676488055       -0.2505396386
 N         -2.9835814388       -1.0031169647        0.6379123211
 C         -3.1736650441        0.0714514852        1.6018346164
 C         -3.2191504245       -0.4773911920        3.0159433287
 C         -1.9788219116        0.9974901013        1.3564454571
 O         -0.8784760993        0.8373913024        1.8685667059
 N         -2.2005640678        1.9475468205        0.4346840803
 O          0.1200191595        0.7228053905       -0.7281615618
 O          1.2334497015        2.3708884694        0.3147643736
 C         -1.0736983358        2.7183901118       -0.0599295774
 C          0.1364414714        1.7923872613       -0.1705470248
 C         -1.3979417663        3.2997001331       -1.4303791231
 H         -2.9321879728       -2.8382629172       -1.3607266993
 H         -3.6806924281       -1.3965658476       -3.2985874321
 H         -2.1878790233       -2.2862918213       -3.6518604735
 H         -2.1270283687       -0.5626772705       -3.2464904765
 H         -0.3285576520       -1.0519372943        1.8610649106
 H         -0.6210913788       -1.0280318820       -1.0920161126
 H          1.2153645873       -1.7799013707       -0.2382644227
 H          1.4054077615       -2.5842895726        2.1101753082
 H          0.1868294515       -3.8363854955        1.7849343826
 H          2.1319927174       -3.6997441392       -1.2198164881
 H          1.4213936096       -4.6879334640       -0.1311225061
 H         -2.3562044154       -1.7407356358        0.9478128059
 H         -4.1013670568        0.5950175382        1.3481367217
 H         -3.3299296833        0.3379385815        3.7256161732
 H         -2.3000445012       -1.0137577598        3.2351009568
 H         -4.0599004702       -1.1573345295        3.1215190208
 H         -3.0151059500        1.8539459959       -0.1652632412
 H         -0.8280803752        3.5105411760        0.6582059378
 H         -1.6195616021        2.4954600155       -2.1287553444
 H         -0.5559459373        3.8739854555       -1.8081016473
 H         -2.2629345363        3.9539423568       -1.3575512751
 C          2.4059418151        1.6169854127        0.3386579797
 C          3.5145703221        2.0351559478       -0.4047488840
 C          2.4625590292        0.4690926652        1.1105837169
 C          4.6770973262        1.2630397190       -0.3584499288
 C          4.7290525588        0.1079687028        0.3953616116
 C          3.6228327498       -0.2868489906        1.1334212189
 H          1.5958484349        0.1936001060        1.6914461948
 H          5.6287685665       -0.4872249973        0.4130675858
 H          3.6606030930       -1.1896465604        1.7231668225
 H          5.5254386071        1.5976657107       -0.9365291037
 C          3.4720786085        3.2532969379       -1.2250376099
 O          4.3723517418        3.6488272689       -1.9189053427
 H          2.5159347552        3.8061031345       -1.1560716421
