  56
        -94.15011610
 C         -2.4779104717       -1.8704208504       -1.5624195078
 C         -2.6177956490       -1.5240248116       -3.0395452431
 C         -3.1425446306       -0.8081204944       -0.6802148630
 O         -3.7238588347        0.1686672193       -1.1220160584
 O         -0.9552748653       -4.1433759858       -0.7585274719
 O         -0.5544037002       -1.9922532881        1.9101530551
 N         -1.0880857800       -1.9180752622       -1.1483928099
 C         -0.4823193944       -3.0269725042       -0.6825308703
 C          0.8506902949       -2.7538366648        0.0307291898
 C          0.5266355219       -2.8087387706        1.5397454673
 N          1.8739990161       -3.7439775262       -0.2491727527
 N         -2.9729399512       -1.0237317390        0.6401652312
 C         -3.1730365905        0.0485639054        1.6045722040
 C         -3.2147566200       -0.5018732406        3.0181837551
 C         -1.9862405716        0.9854172981        1.3610745594
 O         -0.8851363702        0.8347260799        1.8743282801
 N         -2.2157317654        1.9345065070        0.4400935210
 O          0.1115139211        0.7293256855       -0.7251235752
 O          1.2156049513        2.3836097018        0.3170980827
 C         -1.0951447054        2.7155413394       -0.0528767955
 C          0.1215385758        1.7987363267       -0.1670233833
 C         -1.4248701162        3.2988596439       -1.4211445518
 H         -2.9057377094       -2.8586227480       -1.3567102812
 H         -2.1690811700       -2.3030763761       -3.6491394094
 H         -2.1219122249       -0.5785099393       -3.2459257885
 H         -3.6687324607       -1.4252058497       -3.2952011705
 H         -0.3174944700       -1.0499346411        1.8631150826
 H         -0.6109735004       -1.0277605272       -1.0902857253
 H          1.2321498528       -1.7622345008       -0.2355039990
 H          1.4293426256       -2.5675981599        2.1121136669
 H          0.2215943742       -3.8298044893        1.7853931332
 H          2.1682880683       -3.6719497703       -1.2180031085
 H          1.4657487855       -4.6682670412       -0.1314918606
 H         -2.3396540900       -1.7562191936        0.9501893157
 H         -4.1051260436        0.5641319867        1.3505538682
 H         -4.0481244478       -1.1911490229        3.1218197727
 H         -3.3356783396        0.3115559914        3.7283752439
 H         -2.2901398480       -1.0282765288        3.2383367214
 H         -3.0282484346        1.8331558864       -0.1613939317
 H         -0.8550361620        3.5071516959        0.6676900970
 H         -0.5880771995        3.8818898316       -1.7970141116
 H         -2.2955468746        3.9452227466       -1.3456937945
 H         -1.6396813370        2.4952001076       -2.1223150712
 C          2.3914337652        1.6343859738        0.3393346326
 C          3.4927072437        2.0476029059       -0.4175070507
 C          2.4572628503        0.4948584792        1.1228391317
 C          4.6578254578        1.2793090142       -0.3721921065
 C          4.7192428074        0.1328091243        0.3938806152
 C          3.6200690990       -0.2572248855        1.1448857699
 H          1.5954525989        0.2227808834        1.7126424589
 H          5.6207500144       -0.4596823124        0.4107693861
 H          3.6653700682       -1.1534323301        1.7440502299
 H          5.5004012344        1.6097670374       -0.9609985436
 C          3.4399398875        3.2564244133       -1.2509054070
 O          4.3331570699        3.6465210617       -1.9568264081
 H          2.4827485105        3.8072467741       -1.1802972828
