  56
        -94.15646483
 C         -2.2206085580        0.6556119663       -1.8089903646
 C         -1.3035165964        0.5981575923       -3.0286794468
 C         -1.7708993173        1.7997127033       -0.8949330167
 O         -1.3769809990        2.8630495921       -1.3598782907
 O         -4.4763302802       -0.9246694627       -1.2254219887
 O         -2.1628271922       -1.0180862031        1.7498150646
 N         -2.2391848771       -0.6101907196       -1.1161696549
 C         -3.3789089767       -1.2753432284       -0.8380231023
 C         -3.1943908440       -2.4935713451        0.0743443741
 C         -3.1769752714       -1.9623940680        1.5234380570
 N         -4.2685377334       -3.4597101151       -0.0509942699
 N         -1.8484041467        1.5639877373        0.4201181943
 C         -1.3157160105        2.4914880227        1.4085768861
 C         -1.8609084005        2.1565188411        2.7841094245
 C          0.2038837307        2.3137263152        1.3225374320
 O          0.8435208387        1.5572942974        2.0305323347
 N          0.7686196593        3.0133217316        0.3130597482
 O          1.2242140943        0.4556465098       -0.7059506701
 O          3.2758404295        0.5933149755        0.2101699579
 C          2.1002414713        2.6238473439       -0.1029983162
 C          2.1230142734        1.1034822322       -0.2288164553
 C          2.4415328926        3.2589948533       -1.4451722214
 H         -3.2542179327        0.8562173957       -2.1195873102
 H         -1.6625017683       -0.1425530041       -3.7379718671
 H         -0.2966104775        0.3348555922       -2.7105868757
 H         -1.2778172318        1.5732390744       -3.5063306634
 H         -1.3076578816       -1.4251271598        1.5114422850
 H         -1.3495239573       -0.9684848477       -0.7992617184
 H         -2.2397194093       -2.9878675098       -0.1357312413
 H         -3.0806433040       -2.8169949920        2.2042093684
 H         -4.1231738372       -1.4562344919        1.7332853204
 H         -5.1538019689       -2.9602600086       -0.0072282191
 H         -4.2305957581       -3.8998151968       -0.9649913035
 H         -2.0996143027        0.6422126881        0.7759931812
 H         -1.5808478706        3.5107202950        1.1049922817
 H         -1.5803881624        1.1406250082        3.0499557231
 H         -2.9443684099        2.2374593464        2.7872389759
 H         -1.4485700545        2.8392398670        3.5218873738
 H          0.1351696325        3.3594820313       -0.4106203285
 H          2.8256880677        2.9093605840        0.6678052243
 H          1.7188843294        2.9435285584       -2.1947876784
 H          3.4384811512        2.9644107207       -1.7627238497
 H          2.4050755999        4.3412327122       -1.3545303303
 C          3.5229679432       -0.7657517720        0.0794281062
 C          2.5487418173       -1.7344271994        0.3358259302
 C          4.7850541051       -1.1376401198       -0.3587375953
 C          2.8576110587       -3.0741386881        0.1048239868
 C          4.1180163661       -3.4452347657       -0.3204771638
 C          5.0854764243       -2.4765291810       -0.5388730631
 H          5.5174100053       -0.3694358512       -0.5510677874
 H          4.3479868010       -4.4868760318       -0.4822796717
 H          6.0741352662       -2.7608360642       -0.8647892872
 H          2.0912429705       -3.8124106333        0.2868148509
 C          1.2268983132       -1.3731660248        0.8719924842
 O          0.2066930935       -1.9809216926        0.6259117992
 H          1.2274783332       -0.5400505371        1.5933619027
