  56
        -94.15011604
 C         -2.4188013963       -1.5579857924       -1.9578032706
 C         -2.4875560571       -0.9704007192       -3.3619244348
 C         -3.1156136966       -0.6458776300       -0.9424101724
 O         -3.6708357616        0.3976401342       -1.2425073109
 O         -0.9569266443       -3.9557523753       -1.4675586998
 O         -0.6534183415       -2.2731494395        1.5284446852
 N         -1.0498864029       -1.6948227281       -1.4967616969
 C         -0.4765341045       -2.8745902736       -1.1916250765
 C          0.8266102152       -2.7432514666       -0.3886652530
 C          0.4367204854       -3.0349006156        1.0769470067
 N          1.8505204076       -3.6931617435       -0.7826015815
 N         -3.0065404662       -1.0771540000        0.3306559980
 C         -3.2419687145       -0.1747837537        1.4487835394
 C         -3.3492956239       -0.9488488447        2.7496650435
 C         -2.0393894014        0.7728125618        1.4124434299
 O         -0.9632442796        0.5259576481        1.9412001552
 N         -2.2214162816        1.8619653324        0.6494665095
 O          0.1508648910        0.8309537045       -0.5927177228
 O          1.2138918114        2.2810679426        0.7529810537
 C         -1.0749452076        2.6973485722        0.3391980607
 C          0.1405254525        1.7951311879        0.1321845972
 C         -1.3383324729        3.4978887772       -0.9300241981
 H         -2.8633455866       -2.5599247511       -1.9376204930
 H         -3.5247101601       -0.8142389701       -3.6438727815
 H         -2.0175283630       -1.6450062709       -4.0717486623
 H         -1.9749815363       -0.0116769733       -3.3868005489
 H         -0.4077535269       -1.3392200160        1.6455890308
 H         -0.5678282902       -0.8337006778       -1.2735744602
 H          1.2298514690       -1.7285884110       -0.4753205763
 H          1.3153651262       -2.9019087180        1.7180047108
 H          0.1135661861       -4.0776505433        1.1419419466
 H          2.1857023244       -3.4725998200       -1.7150397372
 H          1.4282939777       -4.6174140291       -0.8305990742
 H         -2.3927314999       -1.8593524144        0.5429236459
 H         -4.1585900624        0.3881652720        1.2437823886
 H         -3.4943528590       -0.2611497871        3.5783264376
 H         -2.4392785069       -1.5179699879        2.9183271900
 H         -4.1918071490       -1.6332651361        2.7039356843
 H         -3.0073653229        1.8715977471        0.0057000850
 H         -0.8633275839        3.3592510943        1.1881256331
 H         -2.2074973703        4.1353467434       -0.7895362226
 H         -1.5260004268        2.8206801978       -1.7605621261
 H         -0.4816531375        4.1224656923       -1.1696431173
 C          2.3858087305        1.5274767223        0.7053713002
 C          3.5254935052        2.0558825457        0.0901366971
 C          2.4108155694        0.2689670488        1.2817411726
 C          4.6868367671        1.2811742383        0.0619123686
 C          4.7080976554        0.0186746340        0.6193208663
 C          3.5709814989       -0.4858668951        1.2330887869
 H          1.5196959956       -0.0935314578        1.7706065071
 H          5.6075532829       -0.5758526383        0.5795675428
 H          3.5845905194       -1.4729453612        1.6687016845
 H          5.5592119254        1.7013223709       -0.4158669443
 C          3.5164530283        3.3914593878       -0.5220135868
 O          4.4454621562        3.8900667306       -1.1022509232
 H          2.5569821603        3.9303964629       -0.4059357542
