  56
        -94.15011600
 C         -2.4771480470       -1.8718750210       -1.5617291034
 C         -2.6169608912       -1.5254225955       -3.0388649636
 C         -3.1422754177       -0.8098386662       -0.6795711861
 O         -3.7246613057        0.1662830917       -1.1214090874
 O         -0.9531116439       -4.1443945782       -0.7584017305
 O         -0.5522505693       -1.9919319499        1.9099453355
 N         -1.0873727757       -1.9190218606       -1.1475798378
 C         -0.4808398969       -3.0277126775       -0.6822733221
 C          0.8523695099       -2.7538808240        0.0303954063
 C          0.5287855491       -2.8084187616        1.5394958964
 N          1.8759941917       -3.7436652462       -0.2495733433
 N         -2.9720598845       -1.0250073701        0.6408268604
 C         -3.1727177980        0.0473668465        1.6050053585
 C         -3.2136749677       -0.5027537829        3.0187757131
 C         -1.9866401175        0.9849809409        1.3610824355
 O         -0.8854300244        0.8353595283        1.8744161049
 N         -2.2168892008        1.9337350435        0.4399041554
 O          0.1099003750        0.7297951231       -0.7257181076
 O          1.2144288408        2.3849865250        0.3145775621
 C         -1.0968489841        2.7158000259       -0.0526600951
 C          0.1201043906        1.7995052249       -0.1682227887
 C         -1.4274987217        3.3010620759       -1.4198433543
 H         -2.9047061897       -2.8602178189       -1.3561056203
 H         -3.6678828272       -1.4270502758       -3.2947484557
 H         -2.1677711385       -2.3042345958       -3.6484138802
 H         -2.1214312884       -0.5796812272       -3.2450775077
 H         -0.3155362625       -1.0496077135        1.8624669042
 H         -0.6106054876       -1.0285230046       -1.0894760472
 H          1.2334289820       -1.7622357656       -0.2363629054
 H          1.4316382111       -2.5669036145        2.1114668536
 H          0.2239387631       -3.8294263605        1.7856995980
 H          2.1684992939       -3.6729625244       -1.2190575874
 H          1.4687147126       -4.6681195016       -0.1297677713
 H         -2.3378238502       -1.7567354554        0.9507179256
 H         -4.1052313643        0.5621854979        1.3510257127
 H         -4.0462998031       -1.1928709583        3.1227446299
 H         -3.3353039891        0.3107347202        3.7287764213
 H         -2.2884672725       -1.0281322065        3.2389021674
 H         -3.0292238093        1.8316909827       -0.1616911037
 H         -0.8566407062        3.5064608990        0.6689232868
 H         -1.6424824478        2.4984905185       -2.1222002866
 H         -0.5910743148        3.8849356107       -1.7952054360
 H         -2.2982967038        3.9470921141       -1.3428763145
 C          2.3902580981        1.6358535206        0.3381278983
 C          3.4919664066        2.0481710796       -0.4185601473
 C          2.4558179646        0.4974867081        1.1233659942
 C          4.6573122215        1.2803188800       -0.3711167949
 C          4.7185383516        0.1350755395        0.3968365709
 C          3.6188541482       -0.2541737744        1.1475160179
 H          1.5936408490        0.2260969551        1.7129687519
 H          5.6203881671       -0.4568467361        0.4157476010
 H          3.6640896825       -1.1492628026        1.7483569549
 H          5.5003064663        1.6102500871       -0.9596303082
 C          3.4394790549        3.2555984942       -1.2539897175
 O          4.3331395757        3.6447510399       -1.9598594432
 H          2.4822272539        3.8064860913       -1.1847408363
