  56
        -94.15011410
 C         -1.0016114380       -3.2391470779        0.5192220974
 C         -1.6758984516       -4.0731142386       -0.5630098788
 C         -1.9862480794       -2.2458631183        1.1460072096
 O         -3.1497906623       -2.1351279017        0.8005067054
 O          1.8090982249       -3.4949842518        0.9890850933
 O          1.2310666499       -0.2500081118        1.8835006957
 N          0.0807993910       -2.4352407105       -0.0167200349
 C          1.3702464192       -2.5585298576        0.3519140946
 C          2.2481783517       -1.3662744333       -0.0610748445
 C          2.4389434751       -0.5296555509        1.2232182372
 N          3.5555160352       -1.7522417349       -0.5595321871
 N         -1.4266551332       -1.4592395731        2.0890840198
 C         -2.0903702096       -0.2378984742        2.5220633771
 C         -1.4347981809        0.3099737954        3.7765118448
 C         -1.9412019586        0.6979354994        1.3236305964
 O         -0.9275261996        1.3502082568        1.1050538947
 N         -2.9548186912        0.6780804878        0.4432998483
 O         -0.8565763669       -0.0498345706       -1.3513120082
 O         -0.6302885981        2.1749750554       -1.5646154603
 C         -2.7458578500        1.3456140663       -0.8341719390
 C         -1.3017530945        1.0680486301       -1.2549698015
 C         -3.7088094574        0.7991025937       -1.8778909451
 H         -0.5687513432       -3.8855634014        1.2914507960
 H         -2.5153023447       -4.6160948250       -0.1384789260
 H         -0.9661459525       -4.7782841842       -0.9860298152
 H         -2.0484961111       -3.4225074951       -1.3504619116
 H          0.7349524185        0.4489620758        1.4238024990
 H         -0.1985933412       -1.6450309108       -0.5826367547
 H          1.7429171131       -0.7660893466       -0.8252609547
 H          2.9896135420        0.3853533158        0.9799516296
 H          3.0311812118       -1.1204549084        1.9279135379
 H          3.4526533545       -2.2667525976       -1.4288007204
 H          3.9788414757       -2.3884240611        0.1117053995
 H         -0.4164734261       -1.4565640954        2.2046439443
 H         -3.1483357413       -0.4671155446        2.6864954259
 H         -1.5074726822       -0.4179788149        4.5796853905
 H         -1.9283360425        1.2282659760        4.0828312211
 H         -0.3865158793        0.5211342708        3.5819491722
 H         -3.6196951819       -0.0873036185        0.4854416800
 H         -2.8675746346        2.4273177332       -0.7025979395
 H         -3.5588970053        1.3021704409       -2.8297224866
 H         -4.7340688500        0.9597903191       -1.5546765412
 H         -3.5398995301       -0.2676066471       -2.0096493097
 C          0.7313262774        2.0258245378       -1.8380092234
 C          1.6621425794        2.6412884570       -0.9940015986
 C          1.1524503881        1.2600670847       -2.9124809390
 C          3.0210319620        2.4596378903       -1.2536875798
 C          3.4437649097        1.6831200638       -2.3138392536
 C          2.5079541151        1.0900739315       -3.1462870089
 H          0.4208478130        0.7915006358       -3.5529593735
 H          4.4969652168        1.5343764464       -2.4915121260
 H          2.8296853977        0.4841072141       -3.9792634245
 H          3.7261769977        2.9390092263       -0.5911026386
 C          1.2419635362        3.4567199569        0.1601245945
 O          2.0067424778        4.0064856421        0.9101680568
 H          0.1504862486        3.5252524130        0.2939200232
