  56
        -94.15011287
 C         -1.0244130175       -3.2325365592        0.5343828037
 C         -1.7046332994       -4.0670215821       -0.5437417285
 C         -2.0019637077       -2.2290042356        1.1558467586
 O         -3.1646385634       -2.1118010464        0.8094960599
 O          1.7839813137       -3.5039526005        1.0091894380
 O          1.2291250185       -0.2506567940        1.8829110135
 N          0.0639223378       -2.4393523621       -0.0055512669
 C          1.3520873299       -2.5687194484        0.3655143777
 C          2.2386023710       -1.3854570413       -0.0549773593
 C          2.4349449444       -0.5415996678        1.2237303738
 N          3.5433183766       -1.7841525135       -0.5503419629
 N         -1.4370079452       -1.4413353300        2.0948223984
 C         -2.0923788879       -0.2131744777        2.5212582819
 C         -1.4333356228        0.3367698214        3.7729624331
 C         -1.9366007446        0.7153180880        1.3179861799
 O         -0.9185565358        1.3597826386        1.0963875051
 N         -2.9497545526        0.6972581155        0.4371274689
 O         -0.8534716436       -0.0524180218       -1.3514176308
 O         -0.6146556678        2.1701069574       -1.5760160761
 C         -2.7355190832        1.3563634850       -0.8438505346
 C         -1.2924297980        1.0684560742       -1.2613478740
 C         -3.7001815732        0.8093682991       -1.8857218260
 H         -0.5964312312       -3.8781145244        1.3100156807
 H         -2.0707825810       -3.4177995936       -1.3353533687
 H         -2.5491490295       -4.6002906688       -0.1170387025
 H         -1.0005216281       -4.7806716433       -0.9619272648
 H          0.7370521776        0.4485886269        1.4192839809
 H         -0.2096951073       -1.6501761983       -0.5757286896
 H          1.7378779717       -0.7868293738       -0.8233282170
 H          2.9907337043        0.3686068846        0.9741213752
 H          3.0242478176       -1.1311776693        1.9318895471
 H          3.4371553417       -2.3027961486       -1.4167516464
 H          3.9613157943       -2.4196954970        0.1248296177
 H         -0.4269113056       -1.4452929797        2.2109450539
 H         -3.1519285307       -0.4342494433        2.6866410103
 H         -1.9202577144        1.2603297271        4.0739920744
 H         -0.3834503662        0.5391769950        3.5777265597
 H         -1.5117159034       -0.3862043278        4.5800883489
 H         -3.6197042533       -0.0634854547        0.4830784275
 H         -2.8513711834        2.4394571076       -0.7185485809
 H         -4.7249452479        0.9786619022       -1.5653423478
 H         -3.5378607436       -0.2592092641       -2.0104358094
 H         -3.5454069601        1.3054119113       -2.8404571982
 C          0.7468440630        2.0131730156       -1.8453364035
 C          1.6780768230        2.6327559885       -1.0047664802
 C          1.1675093096        1.2367529586       -2.9123157177
 C          3.0368590624        2.4442559327       -1.2600626658
 C          3.4590629429        1.6569846362       -2.3124879832
 C          2.5229133611        1.0599462182       -3.1416893135
 H          0.4356731257        0.7653707221       -3.5504494562
 H          4.5121008173        1.5029569518       -2.4866595518
 H          2.8442956015        0.4455694720       -3.9686175914
 H          3.7422751839        2.9269532038       -0.6001725123
 C          1.2582376551        3.4595388187        0.1413608899
 O          2.0231284610        4.0162235059        0.8861761853
 H          0.1667628657        3.5299012827        0.2742910180
