  56
        -94.15011227
 C         -2.8782803748        0.6653979816       -1.7468228756
 C         -2.9531052771        0.5859079323       -3.2665517789
 C         -2.1910743848        1.9583061558       -1.2940242913
 O         -1.7512254834        2.7967836639       -2.0614980516
 O         -3.7546287078       -1.5395521873       -0.1478063053
 O         -1.3311876828       -0.1494904165        1.8194991803
 N         -2.0885480482       -0.4165538577       -1.1893968382
 C         -2.5715880761       -1.3528542429       -0.3504950943
 C         -1.4797751494       -2.1457491817        0.3857473775
 C         -1.4269668806       -1.5508901356        1.8102066738
 N         -1.7620640401       -3.5657497018        0.4882223635
 N         -2.0681868847        2.0592849129        0.0461161222
 C         -1.1372320877        3.0122881815        0.6333582255
 C         -1.3867632275        3.1532605908        2.1237861546
 C          0.2338644025        2.4154361493        0.3202809018
 O          0.7483115200        1.5299559674        0.9927145815
 N          0.8035398696        2.8381697918       -0.8195361578
 O          0.7561052093        0.0420783466       -1.4071877925
 O          2.7326526287        0.0599636095       -0.3396038834
 C          1.9742339504        2.1126333254       -1.2932489279
 C          1.7308801958        0.6301425739       -1.0056053210
 C          2.1597236166        2.3309085052       -2.7876908969
 H         -3.8793699037        0.5913805111       -1.3064786482
 H         -3.4549026676       -0.3293346071       -3.5673482509
 H         -1.9499447261        0.5998270626       -3.6857086047
 H         -3.4998248696        1.4413695591       -3.6524805407
 H         -0.4307389916        0.1408421112        1.5940571502
 H         -1.0899217584       -0.3510515174       -1.3351542648
 H         -0.5118052609       -2.0136404187       -0.1092569208
 H         -0.6066396877       -2.0172675805        2.3662956847
 H         -2.3705143359       -1.7860480259        2.3109743753
 H         -1.7559452326       -3.9840548088       -0.4369314980
 H         -2.7031247274       -3.6789901864        0.8571294252
 H         -2.2745761572        1.2532311614        0.6305305269
 H         -1.2559990917        3.9676350187        0.1117631766
 H         -2.3968210304        3.5138869271        2.2970384848
 H         -0.6790963624        3.8566576863        2.5540272234
 H         -1.2652953508        2.1889291736        2.6102648785
 H          0.2276691234        3.3231948699       -1.4998132783
 H          2.8558287302        2.4363877981       -0.7273795256
 H          2.2896777497        3.3903187258       -2.9931185465
 H          1.2838907978        1.9692300232       -3.3223652745
 H          3.0371606147        1.7955095236       -3.1412248698
 C          2.5373198904       -1.2595518500        0.0748625396
 C          2.5052748100       -1.5407332308        1.4450627632
 C          2.3522849825       -2.2680890197       -0.8561720650
 C          2.2744503268       -2.8555247984        1.8513778658
 C          2.0728569226       -3.8597600967        0.9259037269
 C          2.1194010596       -3.5653537885       -0.4274585987
 H          2.3791636509       -2.0333039304       -1.9093437019
 H          1.8757196308       -4.8680977911        1.2535254537
 H          1.9663528694       -4.3449844079       -1.1577384280
 H          2.2498949544       -3.0549969598        2.9123538287
 C          2.6939998257       -0.4860774008        2.4577640907
 O          2.6748825438       -0.6820252822        3.6456040976
 H          2.8535020825        0.5208225849        2.0398894526
