  56
        -94.15011117
 C         -2.4343401536       -1.5342696002       -1.9553980019
 C         -2.4912853484       -0.9433127383       -3.3585928259
 C         -3.1217444775       -0.6142318286       -0.9406948738
 O         -3.6641486102        0.4358254080       -1.2413430902
 O         -1.0089622931       -3.9519924698       -1.4555831472
 O         -0.6853805316       -2.2730163951        1.5370300405
 N         -1.0684928502       -1.6900250952       -1.4913713404
 C         -0.5130829197       -2.8772725818       -1.1819062110
 C          0.7910605266       -2.7626992460       -0.3779566492
 C          0.3964248607       -3.0478261107        1.0877143419
 N          1.8029480995       -3.7260940076       -0.7703057742
 N         -3.0196451140       -1.0468627420        0.3325404868
 C         -3.2442525073       -0.1406753660        1.4498392360
 C         -3.3625574467       -0.9116680367        2.7515883613
 C         -2.0298174915        0.7917417086        1.4127333514
 O         -0.9555149656        0.5300367672        1.9380924595
 N         -2.2002196268        1.8844024635        0.6520646206
 O          0.1576198969        0.8282484390       -0.5981589512
 O          1.2402658463        2.2657903447        0.7459178885
 C         -1.0449275222        2.7066765589        0.3396408425
 C          0.1599950120        1.7916367890        0.1277318798
 C         -1.3026492519        3.5114123963       -0.9281550921
 H         -2.8923769303       -2.5301626141       -1.9378620546
 H         -1.9642360553        0.0076375559       -3.3804487687
 H         -3.5253613743       -0.7710098532       -3.6424272220
 H         -2.0298784003       -1.6235468138       -4.0686856024
 H         -0.4290884397       -1.3419338325        1.6550653628
 H         -0.5746867025       -0.8351568875       -1.2697756550
 H          1.2076832270       -1.7535599622       -0.4657706802
 H          1.2757811620       -2.9243258617        1.7297659378
 H          0.0611295282       -4.0866875987        1.1536406004
 H          2.1401964645       -3.5117332377       -1.7034683682
 H          1.3695225677       -4.6452633385       -0.8159334171
 H         -2.4163037155       -1.8368937416        0.5458153252
 H         -4.1535649944        0.4336315110        1.2437695607
 H         -2.4605222939       -1.4928756122        2.9217588199
 H         -4.2141938255       -1.5847165311        2.7061270266
 H         -3.4990116592       -0.2210243984        3.5792713798
 H         -2.9871465431        1.9039612120        0.0097770414
 H         -0.8234727840        3.3653196014        1.1885672272
 H         -0.4392805357        4.1258322377       -1.1700593443
 H         -2.1636653561        4.1591406848       -0.7844492295
 H         -1.5010413319        2.8370678478       -1.7585526894
 C          2.4057823228        1.5032070997        0.6915577949
 C          3.5517008657        2.0318992945        0.0881020019
 C          2.4192244390        0.2358917677        1.2487481695
 C          4.7067371839        1.2481767548        0.0510121628
 C          4.7159081006       -0.0233511156        0.5879469330
 C          3.5730082898       -0.5280637757        1.1907825663
 H          1.5242585091       -0.1265664194        1.7304472201
 H          5.6106705892       -0.6244360401        0.5414327738
 H          3.5769789762       -1.5219846751        1.6108071902
 H          5.5840691707        1.6688426738       -0.4171347448
 C          3.5555963550        3.3771307529       -0.5025573394
 O          4.4907047487        3.8773968547       -1.0715334849
 H          2.6001909880        3.9220116244       -0.3808756072
