  56
        -94.15011057
 C         -2.8809558842        0.6675631842       -1.7491459604
 C         -2.9563853319        0.5882442163       -3.2688577034
 C         -2.1912605811        1.9592221814       -1.2965622051
 O         -1.7504216461        2.7970112545       -2.0642579008
 O         -3.7608037825       -1.5339443968       -0.1477077894
 O         -1.3323152373       -0.1496749236        1.8167473578
 N         -2.0930693892       -0.4158848465       -1.1919933009
 C         -2.5774915641       -1.3502340681       -0.3516871665
 C         -1.4869220311       -2.1457438246        0.3835334343
 C         -1.4310860609       -1.5508597819        1.8078633105
 N         -1.7728170096       -3.5649989676        0.4867355986
 N         -2.0675566195        2.0598798700        0.0434893765
 C         -1.1351250406        3.0114609018        0.6306903928
 C         -1.3842995854        3.1526128248        2.1211527044
 C          0.2351954842        2.4128710586        0.3173220444
 O          0.7494959926        1.5278174651        0.9904121356
 N          0.8040197066        2.8338935362       -0.8235970840
 O          0.7531210510        0.0376002827       -1.4079039530
 O          2.7313130284        0.0551402581       -0.3429842751
 C          1.9736617022        2.1070572990       -1.2978727274
 C          1.7291465702        0.6250733080       -1.0085615565
 C          2.1583171497        2.3244306628       -2.7925330929
 H         -3.8820491204        0.5953648038       -1.3084860641
 H         -1.9533993728        0.6006844872       -3.6884651961
 H         -3.5019809019        1.4445050661       -3.6545895464
 H         -3.4596539480       -0.3262328255       -3.5694769654
 H         -0.4314895360        0.1388786027        1.5905194417
 H         -1.0943377522       -0.3522241738       -1.3378894293
 H         -0.5191864207       -2.0161995229       -0.1125916553
 H         -0.6108086256       -2.0189082490        2.3626374884
 H         -2.3743766958       -1.7839367766        2.3101842340
 H         -1.7690969956       -3.9835603369       -0.4383208163
 H         -2.7136814380       -3.6756373062        0.8569372270
 H         -2.2751504307        1.2541794712        0.6279374979
 H         -1.2525916721        3.9670584381        0.1092414217
 H         -2.3932044458        3.5164180085        2.2945156319
 H         -0.6744087516        3.8535136119        2.5517702649
 H         -1.2659305763        2.1876724145        2.6071807501
 H          0.2276316105        3.3185014359       -1.5037846758
 H          2.8559581208        2.4303694271       -0.7328491600
 H          1.2817867186        1.9633959339       -3.3264893998
 H          3.0350168381        1.7880554762       -3.1464183100
 H          2.2891380836        3.3836488988       -2.9984633529
 C          2.5352221566       -1.2620922528        0.0779391608
 C          2.5142714142       -1.5370758806        1.4496628004
 C          2.3395588789       -2.2742904466       -0.8469530207
 C          2.2836815534       -2.8493961940        1.8639263760
 C          2.0712088157       -3.8571942210        0.9447265687
 C          2.1066838620       -3.5689438504       -0.4103057864
 H          2.3582419594       -2.0445649493       -1.9014053662
 H          1.8739890593       -4.8635002552        1.2785178875
 H          1.9449539248       -4.3514125550       -1.1356378212
 H          2.2676994938       -3.0439449724        2.9259893947
 C          2.7142591985       -0.4782080680        2.4557539865
 O          2.7097514541       -0.6691962450        3.6445393299
 H          2.8684983479        0.5269789630        2.0317797946
