  56
        -94.15010931
 C         -2.5298259390       -1.8301433417       -1.5732219560
 C         -2.6631965971       -1.4862280243       -3.0514918672
 C         -3.1702139461       -0.7507160283       -0.6940960902
 O         -3.7260409514        0.2396201844       -1.1384293429
 O         -1.0583772974       -4.1335484851       -0.7651488047
 O         -0.6158426704       -1.9934750833        1.9015365590
 N         -1.1412570349       -1.9066131166       -1.1589963310
 C         -0.5606250530       -3.0279418254       -0.6903547522
 C          0.7770768091       -2.7829370090        0.0240939606
 C          0.4502133902       -2.8302855738        1.5328761403
 N          1.7800048678       -3.7942477349       -0.2539830964
 N         -3.0080850495       -0.9682351345        0.6270357198
 C         -3.1803209137        0.1116681398        1.5883174145
 C         -3.2375869693       -0.4329848792        3.0036289597
 C         -1.9691552198        1.0162355855        1.3427006884
 O         -0.8720339400        0.8371630535        1.8556436662
 N         -2.1731886773        1.9692647599        0.4202085554
 O          0.1367386250        0.7106692293       -0.7349913927
 O          1.2660738757        2.3445203527        0.3152577509
 C         -1.0332420362        2.7221130994       -0.0720049489
 C          0.1645581474        1.7791339359       -0.1757575719
 C         -1.3433123885        3.3039489499       -1.4455405001
 H         -2.9786695119       -2.8082288232       -1.3639120271
 H         -2.1504807408       -0.5504976213       -3.2612364899
 H         -3.7121854399       -1.3695111319       -3.3076307889
 H         -2.2286170193       -2.2754405517       -3.6582537027
 H         -0.3606385890       -1.0555690876        1.8578038050
 H         -0.6442444539       -1.0270514719       -1.1024339564
 H          1.1795583675       -1.8000364626       -0.2431051104
 H          1.3564932926       -2.6059545193        2.1065268406
 H          0.1256899563       -3.8452833589        1.7787680524
 H          2.0740799170       -3.7312598575       -1.2235275018
 H          1.3540280773       -4.7099784722       -0.1324873096
 H         -2.3940162795       -1.7160460564        0.9391866271
 H         -4.0983263217        0.6509041110        1.3321702223
 H         -2.3275275278       -0.9830533063        3.2264927496
 H         -4.0890110114       -1.0995972778        3.1086756492
 H         -3.3375488210        0.3856391745        3.7111142351
 H         -2.9891702715        1.8909696923       -0.1798460838
 H         -0.7792126139        3.5128519736        0.6447934025
 H         -1.5733432363        2.5008315425       -2.1424839754
 H         -0.4914768873        3.8648721545       -1.8212985852
 H         -2.1991300898        3.9707505762       -1.3784675912
 C          2.4327099324        1.5825843229        0.3416300324
 C          3.5581844300        2.0167746073       -0.3668202482
 C          2.4695978567        0.4128592083        1.0812666781
 C          4.7155713942        1.2369926885       -0.3213728541
 C          4.7468054431        0.0590758096        0.3974441492
 C          3.6248587258       -0.3507308322        1.1028443507
 H          1.5918078568        0.1260703804        1.6392750549
 H          5.6426654852       -0.5419584359        0.4137001374
 H          3.6459600439       -1.2711697594        1.6655645586
 H          5.5768338900        1.5843324675       -0.8722019913
 C          3.5388543534        3.2602572352       -1.1489764409
 O          4.4550962492        3.6718318489       -1.8120039331
 H          2.5847427255        3.8166150753       -1.0812926950
