  56
        -94.15299159
 C          1.7599981575       -2.5132007915       -0.4648316241
 C          2.4050996004       -3.7918645404       -0.9815670347
 C          0.2361620292       -2.6084433612       -0.6182757253
 O         -0.2985080028       -2.5505652243       -1.7139830472
 O          0.6522821883        0.0117379186       -0.4074624366
 O          1.3603119056        3.2048015450       -1.8288156620
 N          2.2162895610       -1.3758440180       -1.2386736973
 C          1.5820647168       -0.2014737010       -1.1731602165
 C          2.1288186903        0.8706859717       -2.1137266937
 C          2.2472525809        2.2306875984       -1.3688355541
 N          3.3645680584        0.4097120768       -2.7340663752
 N         -0.4365785305       -2.8210682981        0.5206414280
 C         -1.8814987263       -2.9720037453        0.5565035150
 C         -2.2840331972       -3.7665396957        1.7887565701
 C         -2.5860784739       -1.5961505899        0.5407064277
 O         -3.2810862895       -1.2009698534        1.4530014515
 N         -2.3754625642       -0.9142649163       -0.5995190591
 O         -1.2141478236        2.1277042505       -1.2947982694
 O         -1.4961936053        1.3985187016        0.8207629486
 C         -2.8780600360        0.4287501488       -0.8018578144
 C         -1.7614202083        1.4276243586       -0.4843580351
 C         -3.3796015057        0.6064758227       -2.2268492011
 H          2.0127252963       -2.3458919557        0.5896113778
 H          2.0963190771       -3.9674397106       -2.0097948280
 H          2.0936932462       -4.6377989356       -0.3744420932
 H          3.4888302325       -3.7113383853       -0.9399780143
 H          0.4501514715        2.9033056721       -1.6652737996
 H          2.8781037668       -1.5017344035       -1.9921668432
 H          1.3814543957        0.9920231741       -2.9075353948
 H          3.2495862429        2.6409449761       -1.5358709344
 H          2.1223236133        2.0624928428       -0.2896359804
 H          4.1294354107        0.4776033936       -2.0686665896
 H          3.5952757366        1.0048262503       -3.5220266025
 H          0.0335731970       -2.6914767602        1.4060071899
 H         -2.1679870160       -3.4995160114       -0.3620712896
 H         -1.7937054650       -4.7366538642        1.7930950497
 H         -3.3606139150       -3.9086619205        1.7965812325
 H         -2.0110803588       -3.2191327343        2.6879277925
 H         -1.7235561977       -1.2845180636       -1.2845623546
 H         -3.6775423848        0.5719459520       -0.0636073559
 H         -4.1639955314       -0.1149922968       -2.4374200556
 H         -2.5604176884        0.4581826511       -2.9261081351
 H         -3.7705475033        1.6107386743       -2.3632113323
 C         -0.3811188598        2.0359696786        1.3354477485
 C          0.5296216606        1.2541918977        2.0616876393
 C         -0.1533277974        3.3883584813        1.1475952539
 C          1.6686021253        1.8581460738        2.5878218566
 C          1.8892782885        3.2113841964        2.4113376087
 C          0.9804520017        3.9717765668        1.6921810466
 H         -0.8508428890        3.9778829828        0.5735408433
 H          2.7728598595        3.6736535310        2.8246214804
 H          1.1564692423        5.0255148345        1.5405550290
 H          2.3678656534        1.2421717740        3.1336342598
 C          0.2845120729       -0.1840784491        2.1906921809
 O          1.1080760479       -1.0210526462        2.4832711772
 H         -0.7643375018       -0.4608709009        2.0029040561
