  56
        -94.15010731
 C         -2.8858775545        0.6717234109       -1.7476046172
 C         -2.9662994911        0.5933943705       -3.2671161276
 C         -2.1921308850        1.9616196247       -1.2963913655
 O         -1.7511322931        2.7985103391       -2.0649875808
 O         -3.7671753923       -1.5288669672       -0.1467544341
 O         -1.3292003662       -0.1517580851        1.8123636611
 N         -2.0989273432       -0.4139653898       -1.1934703809
 C         -2.5838668770       -1.3481999028       -0.3532953811
 C         -1.4936845879       -2.1470094080        0.3788275359
 C         -1.4314973844       -1.5526952354        1.8031514843
 N         -1.7840019085       -3.5652917336        0.4825587010
 N         -2.0647296794        2.0615603963        0.0433652218
 C         -1.1286137140        3.0108576601        0.6284622758
 C         -1.3734797254        3.1517980671        2.1196385369
 C          0.2394539515        2.4092091010        0.3112870522
 O          0.7537186576        1.5232513265        0.9832659714
 N          0.8056706215        2.8279975610       -0.8316323955
 O          0.7502439139        0.0282996901       -1.4077850150
 O          2.7312912160        0.0500249022       -0.3478537650
 C          1.9717709883        2.0978805953       -1.3097266285
 C          1.7272099441        0.6172762157       -1.0129123099
 C          2.1477119647        2.3089411910       -2.8063505181
 H         -3.8857760995        0.6014790590       -1.3039213296
 H         -3.4729107765       -0.3196002403       -3.5666666986
 H         -1.9646317120        0.6034745306       -3.6899413842
 H         -3.5109178821        1.4512913381       -3.6506017623
 H         -0.4283419275        0.1345228861        1.5835960022
 H         -1.1003087170       -0.3524422156       -1.3410734805
 H         -0.5270194838       -2.0205336578       -0.1201240483
 H         -0.6106820518       -2.0230258134        2.3552420026
 H         -2.3737526445       -1.7836354846        2.3083327864
 H         -1.7843291338       -3.9836421405       -0.4425965520
 H         -2.7241688576       -3.6729782417        0.8554049806
 H         -2.2724890199        1.2560372767        0.6280040210
 H         -1.2453627740        3.9669154053        0.1077197290
 H         -0.6610694905        3.8511476286        2.5486324220
 H         -1.2555270049        2.1864043521        2.6048772902
 H         -2.3812195066        3.5173896369        2.2959280873
 H          0.2287128859        3.3146097826       -1.5099320531
 H          2.8578351799        2.4225413104       -0.7513768426
 H          2.2773596726        3.3672151046       -3.0176135162
 H          1.2680798050        1.9457383531       -3.3336213399
 H          3.0222539364        1.7710076222       -3.1631040404
 C          2.5352738324       -1.2640213038        0.0825945273
 C          2.5221359477       -1.5296982282        1.4562487390
 C          2.3319155485       -2.2820562610       -0.8341628812
 C          2.2912630743       -2.8386532880        1.8807952613
 C          2.0711383873       -3.8521786113        0.9697592855
 C          2.0990200213       -3.5732085189       -0.3873384418
 H          2.3448397324       -2.0596149870       -1.8902357374
 H          1.8741219350       -4.8558660267        1.3114483476
 H          1.9310944494       -4.3602316743       -1.1062754509
 H          2.2815217323       -3.0259291343        2.9442399087
 C          2.7307054885       -0.4645221022        2.4537922075
 O          2.7312042907       -0.6469052262        3.6438738178
 H          2.8862147005        0.5370909612        2.0218999292
