  56
        -94.15010699
 C         -2.8869901533        0.6722401301       -1.7478285205
 C         -2.9680668870        0.5943695809       -3.2673294806
 C         -2.1928886437        1.9619096753       -1.2964949312
 O         -1.7519938508        2.7988930565       -2.0650693107
 O         -3.7673517150       -1.5284387340       -0.1464585845
 O         -1.3293283518       -0.1518636658        1.8125746904
 N         -2.0997714215       -0.4135505063       -1.1942745126
 C         -2.5841630132       -1.3476109323       -0.3535650017
 C         -1.4935647347       -2.1463189100        0.3780520586
 C         -1.4320362525       -1.5527771876        1.8027025677
 N         -1.7829005526       -3.5648769771        0.4808788941
 N         -2.0649492083        2.0614817588        0.0432208077
 C         -1.1285214179        3.0104536359        0.6283287232
 C         -1.3731355438        3.1512673979        2.1195705387
 C          0.2393753875        2.4085350472        0.3108632381
 O          0.7539973734        1.5229721185        0.9830732297
 N          0.8050509535        2.8267720211       -0.8325455389
 O          0.7498862868        0.0269596398       -1.4074053394
 O          2.7315499087        0.0492511780       -0.3486175518
 C          1.9712933167        2.0967608837       -1.3104147867
 C          1.7270568636        0.6161593917       -1.0133489609
 C          2.1475532696        2.3076426816       -2.8070147015
 H         -3.8867222384        0.6018861429       -1.3037866991
 H         -3.4740172325       -0.3189811807       -3.5668997070
 H         -1.9666302349        0.6054884774       -3.6906676645
 H         -3.5136466374        1.4518923357       -3.6502767612
 H         -0.4283891227        0.1342056880        1.5838983288
 H         -1.1012021877       -0.3519000103       -1.3421765232
 H         -0.5268795094       -2.0188551977       -0.1205967674
 H         -0.6115894778       -2.0236037610        2.3549163747
 H         -2.3746061470       -1.7836415651        2.3073292257
 H         -1.7824127293       -3.9827025473       -0.4445087237
 H         -2.7231751053       -3.6734376962        0.8531854659
 H         -2.2728631045        1.2559578438        0.6277964205
 H         -1.2450590988        3.9666181015        0.1077288471
 H         -1.2559689453        2.1856658756        2.6045878220
 H         -2.3805348782        3.5177101817        2.2960504325
 H         -0.6600647806        3.8498849639        2.5486591850
 H          0.2278451041        3.3130814272       -1.5108625458
 H          2.8572214210        2.4216040184       -0.7519405758
 H          2.2782842630        3.3658211291       -3.0182176625
 H          1.2676205050        1.9452963375       -3.3344241641
 H          3.0216394767        1.7688328124       -3.1636435279
 C          2.5357627437       -1.2644784639        0.0829681159
 C          2.5229969125       -1.5289021705        1.4568826625
 C          2.3322630590       -2.2833447293       -0.8328361700
 C          2.2924370754       -2.8375137542        1.8826790693
 C          2.0722772313       -3.8519072300        0.9725952131
 C          2.0996731902       -3.5741411805       -0.3847728731
 H          2.3447495502       -2.0618250627       -1.8891193227
 H          1.8756700972       -4.8553605922        1.3152470427
 H          1.9318217593       -4.3618904117       -1.1029425952
 H          2.2830356461       -3.0238362957        2.9463036819
 C          2.7318464207       -0.4627861065        2.4533846132
 O          2.7320340732       -0.6439300653        3.6436843164
 H          2.8878146374        0.5383312993        2.0204769577
