  56
        -94.15010667
 C         -0.0239306109       -2.1093409422       -1.1082251841
 C          1.0911708811       -2.9105069724       -0.4594236504
 C          0.4591113167       -0.7252397094       -1.5716817495
 O          1.5084732941       -0.2329201861       -1.1941691823
 O         -2.7065496028       -1.6479667332       -1.6969558956
 O         -5.2803594986       -1.2668643195       -0.7946099094
 N         -1.0899587941       -1.8611112245       -0.1494697799
 C         -2.3506210429       -1.6103677747       -0.5234281199
 C         -3.3036162781       -1.3237053534        0.6325961078
 C         -4.5176063680       -0.5193422570        0.1167346404
 N         -3.6630044026       -2.6103124408        1.2195324712
 N         -0.4195609989       -0.1046536338       -2.3791866010
 C         -0.4203720152        1.3451298676       -2.5345343515
 C         -1.2811440994        1.7431222101       -3.7196525281
 C         -1.0156906820        1.8374251820       -1.2041763254
 O         -2.1968928789        1.7152536517       -0.9485549302
 N         -0.1100483881        2.3022880940       -0.3218483660
 O         -0.2264628599        0.0817675057        1.8443054056
 O          1.6160101696        1.3703320850        1.7042743965
 C         -0.4039456069        2.3844868164        1.1000540788
 C          0.3029834317        1.1443504589        1.6415216302
 C          0.0999987232        3.6885267837        1.6976374648
 H         -0.4635148587       -2.6466476614       -1.9560135700
 H          1.8617890499       -3.1310901485       -1.1928011395
 H          0.6997069140       -3.8410928012       -0.0578278114
 H          1.5408106071       -2.3309846862        0.3439289999
 H         -4.6803181126       -1.4864571746       -1.5260837435
 H         -0.8161807167       -1.6761095822        0.8054756689
 H         -2.7703324694       -0.7331942831        1.3847273308
 H         -4.1566745995        0.4147864707       -0.3320918176
 H         -5.1819622036       -0.2804790563        0.9527560983
 H         -4.2511994636       -3.1099672638        0.5562055597
 H         -4.2251096804       -2.4565619177        2.0510858900
 H         -1.3240567062       -0.5529282004       -2.5172261636
 H          0.6155141179        1.6775343946       -2.6459763023
 H         -0.9478312525        1.2318563406       -4.6188221090
 H         -1.2222517388        2.8166577778       -3.8770322533
 H         -2.3160517268        1.4770660549       -3.5158716855
 H          0.8788921205        2.3307755591       -0.5565118159
 H         -1.4862501947        2.2666306179        1.2161268622
 H         -0.4201225950        4.5234500175        1.2361869850
 H          1.1662886772        3.7916462809        1.5156880714
 H         -0.0836756649        3.7068987262        2.7686429738
 C          2.5115047315        0.3211266090        1.7481746176
 C          3.4814910687        0.2667212776        0.7352345409
 C          2.4635414966       -0.6423783698        2.7416284856
 C          4.4053961191       -0.7764428378        0.7620499992
 C          4.3677009051       -1.7326760118        1.7585189768
 C          3.3954190705       -1.6674407093        2.7443943744
 H          1.6985080940       -0.5893347510        3.5003993769
 H          5.0884682648       -2.5358499159        1.7646461214
 H          3.3561636680       -2.4190784294        3.5179702011
 H          5.1515949681       -0.8321447686       -0.0165099382
 C          3.5025318051        1.2300439565       -0.3732181691
 O          2.8356112486        2.2291996326       -0.4792953141
 H          4.2353935291        0.9592004573       -1.1552706932
