  56
        -94.15010220
 C         -1.1460265791       -3.1890992416        0.6268984015
 C         -1.8592622178       -4.0329098362       -0.4223277954
 C         -2.0839506694       -2.1298101438        1.2157708551
 O         -3.2426812935       -1.9818675657        0.8676825212
 O          1.6499534339       -3.5577971000        1.1035167866
 O          1.2209510690       -0.2517856436        1.8666428342
 N         -0.0293785619       -2.4560352520        0.0605564332
 C          1.2539857581       -2.6263733659        0.4317951739
 C          2.1861059271       -1.4940010589       -0.0279165247
 C          2.4146062090       -0.6137331633        1.2205650262
 N          3.4747728891       -1.9607188791       -0.5054952564
 N         -1.4874651039       -1.3320508589        2.1261452454
 C         -2.0955309649       -0.0669754612        2.5129700784
 C         -1.4124986565        0.4986999168        3.7445896712
 C         -1.9075463038        0.8144580387        1.2793398998
 O         -0.8686640252        1.4177829975        1.0391779846
 N         -2.9182376758        0.7978214804        0.3959551462
 O         -0.8302958061       -0.0650823329       -1.3568279303
 O         -0.5353090062        2.1438794251       -1.6445607062
 C         -2.6808984742        1.4041450144       -0.9069477727
 C         -1.2417630726        1.0685520200       -1.3026506714
 C         -3.6513088234        0.8405188110       -1.9345444887
 H         -0.7411730929       -3.8246338243        1.4230158032
 H         -1.1829886541       -4.7855712609       -0.8174280835
 H         -2.2032406010       -3.3973597272       -1.2347125596
 H         -2.7218008793       -4.5202097742        0.0228889580
 H          0.7575287841        0.4496555074        1.3779055413
 H         -0.2724056272       -1.6740859432       -0.5330059015
 H          1.7097880179       -0.9036203726       -0.8177840632
 H          3.0063155216        0.2642322174        0.9397679784
 H          2.9795709469       -1.2005911297        1.9505148689
 H          3.3495329342       -2.5037810073       -1.3542018146
 H          3.8657217985       -2.5894253175        0.1919554449
 H         -0.4777850171       -1.3693083233        2.2400906911
 H         -3.1621688912       -0.2425742227        2.6869767152
 H         -1.5132071265       -0.1948700635        4.5747061657
 H         -1.8649256829        1.4482268775        4.0172573606
 H         -0.3569113219        0.6572565539        3.5397041651
 H         -3.6148213917        0.0633433584        0.4678993580
 H         -2.7729549955        2.4935381458       -0.8229239121
 H         -3.4804749005        1.2980883361       -2.9056052836
 H         -4.6739673452        1.0431719888       -1.6270662290
 H         -3.5116022497       -0.2351109710       -2.0195197549
 C          0.8264669564        1.9496116204       -1.8857481049
 C          1.7560462812        2.5828669980       -1.0534774856
 C          1.2489564912        1.1246620459       -2.9149096502
 C          3.1147348996        2.3578224001       -1.2775338444
 C          3.5382720266        1.5222350820       -2.2915240811
 C          2.6041322248        0.9123280552       -3.1135510213
 H          0.5185723657        0.6438653768       -3.5476146106
 H          4.5906981277        1.3409135570       -2.4416177363
 H          2.9269101894        0.2603683115       -3.9105597720
 H          3.8185496032        2.8519401950       -0.6243684927
 C          1.3341913238        3.4623835039        0.0518447801
 O          2.0975741885        4.0342805707        0.7865673070
 H          0.2422970155        3.5585831205        0.1633513263
