  56
        -94.15010047
 C         -2.8879477096        0.6804946455       -1.7476884623
 C         -2.9666921234        0.6069859819       -3.2675945690
 C         -2.1916691707        1.9675192283       -1.2922498310
 O         -1.7520984245        2.8073903015       -2.0584916461
 O         -3.7771939912       -1.5239960498       -0.1563486201
 O         -1.3266193316       -0.1609600662        1.8056231386
 N         -2.1045556417       -0.4089436452       -1.1960464152
 C         -2.5931740975       -1.3459067668       -0.3611207479
 C         -1.5060365942       -2.1518730554        0.3676602150
 C         -1.4387661324       -1.5611295126        1.7931990636
 N         -1.8036894759       -3.5688147980        0.4688515049
 N         -2.0602599642        2.0613718070        0.0475296941
 C         -1.1201232947        3.0056824593        0.6343694861
 C         -1.3595377021        3.1394917302        2.1270661747
 C          0.2450342784        2.4015750272        0.3094771637
 O          0.7602887439        1.5128439952        0.9770894238
 N          0.8062593703        2.8207070164       -0.8356430626
 O          0.7475938092        0.0172464085       -1.4057505114
 O          2.7339516865        0.0452404323       -0.3555282610
 C          1.9676483446        2.0884493599       -1.3220279486
 C          1.7255801331        0.6089705936       -1.0173392801
 C          2.1288322037        2.2937438657       -2.8211403776
 H         -3.8886294656        0.6115338595       -1.3055550019
 H         -1.9644034906        0.6134051946       -3.6890667353
 H         -3.5065416358        1.4686662070       -3.6493056624
 H         -3.4772328373       -0.3026711108       -3.5705743966
 H         -0.4246765321        0.1195494996        1.5744223535
 H         -1.1055889415       -0.3503163253       -1.3426803846
 H         -0.5393390855       -2.0291436575       -0.1321274825
 H         -0.6207452265       -2.0384636411        2.3434782304
 H         -2.3821849668       -1.7865186800        2.2987082937
 H         -1.8058828462       -3.9855228386       -0.4570375371
 H         -2.7446306769       -3.6721527094        0.8410123275
 H         -2.2678748449        1.2535704427        0.6291089267
 H         -1.2360598784        3.9646489989        0.1188439439
 H         -1.2434818442        2.1710360879        2.6066412991
 H         -2.3652758674        3.5079000823        2.3088280225
 H         -0.6429935638        3.8337528496        2.5574217321
 H          0.2277568291        3.3120168967       -1.5092988936
 H          2.8593082051        2.4149310084       -0.7737019350
 H          2.2576863523        3.3510674458       -3.0377175910
 H          1.2434228931        1.9297528649       -3.3381481166
 H          2.9989972172        1.7532304319       -3.1846876723
 C          2.5380948764       -1.2648139790        0.0869187364
 C          2.5319285760       -1.5184360296        1.4629397760
 C          2.3267590880       -2.2901787699       -0.8198003234
 C          2.2992552207       -2.8228790750        1.9001980843
 C          2.0711177276       -3.8436621820        0.9992279479
 C          2.0925397203       -3.5767010205       -0.3604180302
 H          2.3344865220       -2.0769927111       -1.8778319014
 H          1.8727102783       -4.8437257284        1.3506770424
 H          1.9184709619       -4.3695903617       -1.0713924566
 H          2.2944786259       -3.0006536866        2.9653284039
 C          2.7508104737       -0.4454974541        2.4498997116
 O          2.7540045452       -0.6166467484        3.6416105717
 H          2.9123436272        0.5508297616        2.0080275982
