  56
        -94.15009792
 C         -0.6493192785       -3.1736008423       -0.5068492160
 C         -1.0594620851       -3.6277829491       -1.9027045670
 C         -1.8227709584       -2.5145505168        0.2249644889
 O         -2.9449059386       -2.4201032042       -0.2446536586
 O          2.0401120643       -3.4427883532        0.4014871019
 O          0.9820293262       -0.5534130053        1.9944706073
 N          0.4149992738       -2.1908724573       -0.5537586581
 C          1.6350972503       -2.3753890537       -0.0147129614
 C          2.4630833324       -1.0867269551        0.0920327986
 C          2.3171005229       -0.6144426103        1.5551504192
 N          3.8735657874       -1.2817011076       -0.1857101977
 N         -1.4918934953       -2.0084998832        1.4302988120
 C         -2.3722070062       -1.0779296592        2.1223525961
 C         -1.9350331719       -0.9104623179        3.5656215088
 C         -2.2341325230        0.2103454889        1.3142245482
 O         -1.3534667229        1.0391634269        1.5102060262
 N         -3.0680587655        0.3260413640        0.2683994197
 O         -0.5358560548        0.5295119409       -1.0331288428
 O         -0.7995276498        2.7267981080       -0.6247748701
 C         -2.7639269147        1.3710496028       -0.6987574371
 C         -1.2396100020        1.4767442299       -0.7645720256
 C         -3.3222421030        1.0066222181       -2.0666447794
 H         -0.2721529365       -4.0214325982        0.0777639852
 H         -1.9052504657       -4.3058935348       -1.8352722584
 H         -0.2289230535       -4.1313673888       -2.3887439238
 H         -1.3524732362       -2.7677088346       -2.5000874956
 H          0.5235454287        0.2057273380        1.6028590480
 H          0.1647230972       -1.2772356089       -0.9061255668
 H          2.0686969225       -0.3259788395       -0.5863030069
 H          2.8233722901        0.3502247990        1.6731104024
 H          2.8057035492       -1.3496641283        2.2005297543
 H          4.0052349120       -1.4400773609       -1.1795947345
 H          4.1815004752       -2.1233489825        0.2959466961
 H         -0.5115935129       -1.9388579875        1.6914007790
 H         -3.3963002238       -1.4581359539        2.0478385423
 H         -2.5893034660       -0.2068202126        4.0729422795
 H         -0.9168733284       -0.5306645843        3.5946181017
 H         -1.9740209067       -1.8672333609        4.0786543027
 H         -3.5691889636       -0.5000824501       -0.0478509902
 H         -3.1633663700        2.3282130367       -0.3427999475
 H         -3.1057455984        1.7931811033       -2.7849665038
 H         -4.3996154417        0.8775414798       -2.0028021105
 H         -2.8731540498        0.0777427860       -2.4117349922
 C          0.5672620532        2.8901521640       -0.3984507767
 C          1.5296049512        2.3517221798       -1.2553092107
 C          0.9415581962        3.5364988123        0.7687496255
 C          2.8746667775        2.4465924884       -0.8972173386
 C          3.2501352044        3.0985068550        0.2603521196
 C          2.2838017261        3.6550584464        1.0854897565
 H          0.1725372865        3.9180443014        1.4208936370
 H          4.2938336577        3.1662544384        0.5249472967
 H          2.5724584019        4.1637195343        1.9925238429
 H          3.6082559732        1.9976425101       -1.5491782803
 C          1.1570187174        1.6819421008       -2.5159573222
 O          1.8099770703        0.8295963561       -3.0564155139
 H          0.2219882887        2.0638836950       -2.9724367896
