  56
        -94.15008811
 C         -2.5905591133       -1.7898540811       -1.5674600644
 C         -2.7241683439       -1.4470245178       -3.0460298757
 C         -3.2011200405       -0.6935282170       -0.6882775317
 O         -3.7403114428        0.3057322335       -1.1333072715
 O         -1.1742368936       -4.1267687692       -0.7643217543
 O         -0.6533937918       -1.9839120008        1.8895998973
 N         -1.2019331893       -1.8990623165       -1.1609015560
 C         -0.6467781275       -3.0346349076       -0.6954650223
 C          0.7029642528       -2.8243826381        0.0070159431
 C          0.3869999736       -2.8517051966        1.5186931477
 N          1.6722443278       -3.8677689146       -0.2716973305
 N         -3.0322298121       -0.9076358900        0.6325300368
 C         -3.1711590321        0.1809308501        1.5895361668
 C         -3.2275084863       -0.3544949186        3.0083306891
 C         -1.9413497279        1.0549697445        1.3269557280
 O         -0.8448409982        0.8555667698        1.8338412350
 N         -2.1293162956        2.0019396176        0.3952749704
 O          0.1636133015        0.6826711431       -0.7458373446
 O          1.3120296258        2.3113948318        0.2944860328
 C         -0.9760302049        2.7221768049       -0.1142400650
 C          0.2053163516        1.7559757692       -0.1966835488
 C         -1.2762290705        3.2771307591       -1.5011024232
 H         -3.0614308724       -2.7564579990       -1.3531053869
 H         -3.7711763987       -1.3014718777       -3.2954154697
 H         -2.3162256089       -2.2500967415       -3.6530806498
 H         -2.1866762695       -0.5268646947       -3.2626205644
 H         -0.3733771851       -1.0536220823        1.8386808016
 H         -0.6817538749       -1.0325543214       -1.1095340942
 H          1.1325201713       -1.8559416921       -0.2704685003
 H          1.3035920960       -2.6477846212        2.0834956858
 H          0.0373034275       -3.8557542755        1.7747625601
 H          1.9618566257       -3.8192879867       -1.2434103984
 H          1.2187210819       -4.7691351340       -0.1424833121
 H         -2.4319810324       -1.6672698868        0.9431357996
 H         -4.0787121557        0.7399665044        1.3387182104
 H         -2.3288904311       -0.9253813784        3.2252300432
 H         -4.0938728590       -0.9994241343        3.1257884050
 H         -3.3001256829        0.4702219509        3.7120629256
 H         -2.9533565026        1.9397399469       -0.1956448173
 H         -0.7072216898        3.5248894437        0.5836887545
 H         -2.1197192559        3.9608213136       -1.4498246346
 H         -1.5213377600        2.4621402434       -2.1788297752
 H         -0.4144582269        3.8132180425       -1.8902431184
 C          2.4716829501        1.5412427509        0.3382910816
 C          3.6185376077        1.9858014473       -0.3287760611
 C          2.4853436715        0.3576959173        1.0564422066
 C          4.7723798911        1.2021419036       -0.2651556680
 C          4.7802553105        0.0102435495        0.4308876782
 C          3.6374731319       -0.4097653244        1.0956697894
 H          1.5928498310        0.0635486665        1.5861829299
 H          5.6742403905       -0.5930345998        0.4617668007
 H          3.6401810019       -1.3403859180        1.6418827653
 H          5.6501932665        1.5582109953       -0.7833232312
 C          3.6252528551        3.2448337554       -1.0858067189
 O          4.5625002440        3.6680227378       -1.7112155362
 H          2.6702259222        3.8014470897       -1.0368871314
