  56
        -94.15008214
 C         -2.4161050569       -2.0430340143       -1.4716598970
 C         -2.6444546348       -1.7504343351       -2.9496797643
 C         -3.1168380920       -1.0053114039       -0.5886639029
 O         -3.7897892970       -0.0889643873       -1.0306702019
 O         -0.7020275763       -4.1901950236       -0.7153377856
 O         -0.3258048399       -1.9239998131        1.8919060133
 N         -1.0098588973       -1.9848765079       -1.1194191512
 C         -0.3058613630       -3.0425300099       -0.6730341689
 C          1.0357424706       -2.6676159585       -0.0254706123
 C          0.7776624458       -2.6981345492        1.4964616093
 N          2.1046519500       -3.6024405667       -0.3232516994
 N         -2.8716872917       -1.1648570029        0.7273973332
 C         -3.1167705139       -0.0853121006        1.6734742142
 C         -3.0595132395       -0.6013210041        3.0993097764
 C         -2.0124833366        0.9284731970        1.3630453822
 O         -0.8946211113        0.8879733350        1.8601974030
 N         -2.3257667675        1.8096930090        0.4008537074
 O          0.0841190797        0.7106588355       -0.7198053292
 O          1.0568702707        2.4818754113        0.2565692677
 C         -1.2681184519        2.6358720256       -0.1551397128
 C          0.0116740212        1.8022581386       -0.2096660485
 C         -1.6423985612        3.0925239690       -1.5593703211
 H         -2.7648659683       -3.0522943540       -1.2228500737
 H         -2.2242846224       -0.7804324749       -3.2047667502
 H         -3.7099960538       -1.7301868275       -3.1590226399
 H         -2.1709054402       -2.5155397311       -3.5580884270
 H         -0.1391258802       -0.9756299202        1.7938819723
 H         -0.5931107548       -1.0633455329       -1.0884595199
 H          1.3438340207       -1.6618007853       -0.3305960540
 H          1.6910148427       -2.3967803423        2.0210463586
 H          0.5340749140       -3.7252713715        1.7818885764
 H          2.3585231869       -3.5358770953       -1.3037947705
 H          1.7557728539       -4.5458713964       -0.1710505256
 H         -2.1699297081       -1.8366276631        1.0276742731
 H         -4.0939583512        0.3523916836        1.4443954477
 H         -2.0859073788       -1.0438700926        3.2919272743
 H         -3.8281875786       -1.3536419892        3.2522325724
 H         -3.2189803813        0.2172102053        3.7958585964
 H         -3.1458096935        1.6293989001       -0.1716957724
 H         -1.0855782427        3.4928838966        0.5050048013
 H         -0.8531104559        3.7096927624       -1.9807580662
 H         -2.5603622713        3.6736522029       -1.5254618016
 H         -1.7947418333        2.2268476525       -2.2004262969
 C          2.2733952844        1.8036014051        0.3424957777
 C          3.3396109303        2.1728636645       -0.4834582260
 C          2.4096427932        0.7764689312        1.2607787514
 C          4.5447080797        1.4771192275       -0.3661908613
 C          4.6793534948        0.4446048150        0.5396682451
 C          3.6130818303        0.0977598864        1.3563645827
 H          1.5698290700        0.5353513400        1.8945432860
 H          5.6122550010       -0.0921455313        0.6144885377
 H          3.7178815431       -0.7062490593        2.0683711229
 H          5.3596170695        1.7718528728       -1.0102823902
 C          3.2105907474        3.2620975078       -1.4610488298
 O          4.0706046753        3.6033501062       -2.2305273943
 H          2.2275274819        3.7699798715       -1.4383553184
