  56
        -94.15298866
 C          1.7892833330       -2.4894360315       -0.4617338304
 C          2.4467325083       -3.7634787385       -0.9747232545
 C          0.2659645408       -2.6051495045       -0.6046978142
 O         -0.2782244341       -2.5568719312       -1.6959513417
 O          0.6487107660        0.0252303574       -0.4234209782
 O          1.2837744034        3.1992043864       -1.8626429006
 N          2.2274647991       -1.3518312406       -1.2451469364
 C          1.5811523885       -0.1837987976       -1.1869291360
 C          2.1197424180        0.8867345847       -2.1345435443
 C          2.2067544063        2.2577750716       -1.4061916046
 N          3.3716050120        0.4395487492       -2.7327033570
 N         -0.3947647342       -2.8267847897        0.5398213822
 C         -1.8366546475       -3.0013918281        0.5862508115
 C         -2.2177107868       -3.8047794610        1.8195696097
 C         -2.5620814888       -1.6365887925        0.5786297448
 O         -3.2499439127       -1.2503400988        1.5000747347
 N         -2.3774403854       -0.9532314419       -0.5653191549
 O         -1.2713589500        2.0964271809       -1.2957320578
 O         -1.5105851677        1.3822602401        0.8301641610
 C         -2.9052162173        0.3810366561       -0.7619361051
 C         -1.7972615713        1.3971470334       -0.4707865319
 C         -3.4388155872        0.5463594709       -2.1767612603
 H          2.0464945343       -2.3133344255        0.5902307326
 H          2.1355047318       -3.9482226654       -2.0005910689
 H          2.1479928277       -4.6096989552       -0.3616514303
 H          3.5296453856       -3.6701849899       -0.9384855429
 H          0.3848129226        2.8735538463       -1.6836288543
 H          2.8962405954       -1.4725921417       -1.9933244809
 H          1.3810980178        0.9853050097       -2.9395929784
 H          3.1931907381        2.6968002261       -1.5939539054
 H          2.1043672922        2.0977661388       -0.3233151140
 H          4.1250639053        0.5249797083       -2.0563851462
 H          3.6050211679        1.0313981612       -3.5223469490
 H          0.0800682269       -2.6902234427        1.4214434796
 H         -2.1211336231       -3.5315385353       -0.3313857819
 H         -3.2915413355       -3.9660409150        1.8333456503
 H         -1.9494184679       -3.2538457828        2.7179635204
 H         -1.7103391013       -4.7661111657        1.8195002536
 H         -1.7273124333       -1.3128363116       -1.2576618169
 H         -3.6914775840        0.5139118841       -0.0077957901
 H         -3.8519099464        1.5426259542       -2.3063947537
 H         -4.2133154157       -0.1904499765       -2.3701820582
 H         -2.6312796823        0.4128475614       -2.8923184321
 C         -0.3976194319        2.0413326384        1.3217623187
 C          0.5381942533        1.2799319040        2.0375922574
 C         -0.1965655569        3.3962518073        1.1220406147
 C          1.6745601456        1.9070612696        2.5419848263
 C          1.8684771114        3.2628807706        2.3541594019
 C          0.9352230427        4.0027965881        1.6449549273
 H         -0.9133199886        3.9697624131        0.5555119739
 H          2.7502043784        3.7431372721        2.7505738248
 H          1.0902999680        5.0584665742        1.4842123635
 H          2.3933503396        1.3067663905        3.0798645847
 C          0.3209346508       -0.1617671170        2.1782562373
 O          1.1628998907       -0.9815275688        2.4670533432
 H         -0.7247086864       -0.4589749248        2.0039546027
