  56
        -94.15006287
 C          0.5183753674       -3.3761345365        0.7973979635
 C          0.4793413825       -4.7022135196        0.0580110395
 C         -0.9023378690       -2.8721766143        1.1112053598
 O         -1.8944050203       -3.2828011875        0.5295785778
 O          1.6358457536       -0.9165466137        1.6481070963
 O          4.0877667443        0.3175931494        1.0518606245
 N          1.1865066931       -2.3760066189       -0.0163499283
 C          1.6804283654       -1.2347910160        0.4610061500
 C          2.3882750840       -0.3555146993       -0.5592692516
 C          3.8799364810       -0.3354713634       -0.1632836447
 N          2.2088349180       -0.8730233978       -1.9035717037
 N         -0.9294347041       -1.9369438341        2.0691523446
 C         -2.1499125668       -1.2511656162        2.4668456343
 C         -1.9667928941       -0.6299341819        3.8406155455
 C         -2.4522063022       -0.1788213766        1.4066056605
 O         -2.2584826480        1.0060713532        1.5746472086
 N         -2.9329991430       -0.6975615398        0.2549374146
 O         -0.7622188033       -0.3754694245       -1.6546036563
 O         -1.3292777063        1.7624521573       -1.2523219199
 C         -3.0117320743        0.1328276465       -0.9321095247
 C         -1.5757656805        0.4580252609       -1.3433027651
 C         -3.7356040464       -0.6096503046       -2.0448945087
 H          1.0716847431       -3.4642174512        1.7410329149
 H          1.4816283267       -5.0025373939       -0.2358665448
 H         -0.1477946302       -4.6096786067       -0.8253382704
 H          0.0516416455       -5.4683233908        0.6985579743
 H          3.4010672071        0.0196345963        1.6726064596
 H          1.2491491242       -2.5178487242       -1.0155827222
 H          2.0079791316        0.6715111342       -0.4216103774
 H          4.4510271989        0.2136109770       -0.9186519633
 H          4.2534903398       -1.3714495124       -0.1325303212
 H          2.8163312838       -0.3792725564       -2.5482746009
 H          1.2488076491       -0.7066605034       -2.1949968011
 H         -0.0474908648       -1.5124626316        2.3533868383
 H         -2.9592879770       -1.9906529351        2.4639155576
 H         -1.1990172328        0.1387343910        3.7941813158
 H         -1.6772921173       -1.3877213534        4.5636883999
 H         -2.8947051341       -0.1650150303        4.1611249917
 H         -2.8809897285       -1.7066152908        0.1227264536
 H         -3.5143723333        1.0689671220       -0.6666067428
 H         -3.1707917523       -1.4982784015       -2.3185512770
 H         -3.8405748168        0.0268616123       -2.9196695174
 H         -4.7235515095       -0.9074037957       -1.7046713206
 C         -0.0495230217        2.2416745002       -1.5205098407
 C          0.6020490794        3.0100899629       -0.5491508778
 C          0.5525442121        1.9926589599       -2.7441155178
 C          1.8713389429        3.5116064286       -0.8370125943
 C          2.4810978433        3.2501820683       -2.0485917645
 C          1.8182987483        2.4944463434       -3.0027873316
 H          0.0296838157        1.4102068212       -3.4879603494
 H          3.4686370342        3.6344505559       -2.2518889226
 H          2.2826507070        2.2933971649       -3.9567922432
 H          2.3631224551        4.0967139629       -0.0745912293
 C         -0.0060967841        3.2855667769        0.7717933456
 O          0.4755503153        4.0443682748        1.5729887874
 H         -0.9375565614        2.7356042859        0.9756860840
