  56
        -94.15006119
 C         -3.3529355527        0.8896581159        0.5454923956
 C         -4.4682257159        1.5181454443       -0.2717306291
 C         -2.3419562556        1.9514042482        1.0162424476
 O         -2.2523849786        3.0551482341        0.5016580372
 O         -1.6630485952       -1.1962165596        1.4497945857
 O         -1.4770669774       -3.9002342243        0.7203854002
 N         -2.6429079517       -0.0895453364       -0.2582318435
 C         -1.8557886475       -1.0387339272        0.2453661848
 C         -1.2490509336       -1.9902051119       -0.7753985065
 C         -1.8725356254       -3.3771040329       -0.5108985014
 N         -1.5215235338       -1.5418367283       -2.1288588302
 N         -1.5727936444        1.5326997427        2.0292484119
 C         -0.4839506069        2.3301152624        2.5738488387
 C         -0.1204784869        1.8262749267        3.9597203378
 C          0.7078839505        2.2147519921        1.6087149934
 O          1.6832192823        1.5275553995        1.8239849458
 N          0.5437254525        2.9394029532        0.4797104789
 O          0.1148146303        0.9399216182       -1.5849534103
 O          2.2579694463        0.5482729462       -1.0304784443
 C          1.4364093101        2.7314028771       -0.6448794541
 C          1.1795639684        1.3164370455       -1.1630746119
 C          1.1605395030        3.7600770308       -1.7309035707
 H         -3.7505574044        0.3734363236        1.4285335743
 H         -5.1245984233        0.7500143798       -0.6720758672
 H         -4.0419185759        2.0958968721       -1.0882123344
 H         -5.0479993492        2.1914850847        0.3532656080
 H         -1.5287165862       -3.1862513533        1.3786589135
 H         -2.7011529662       -0.0320922233       -1.2660733168
 H         -0.1736125675       -2.0739086883       -0.5408483096
 H         -1.5339009127       -4.0818909944       -1.2769637785
 H         -2.9688735714       -3.2925217819       -0.5788892166
 H         -1.2609075230       -2.2639379121       -2.7915244704
 H         -0.9520322469       -0.7224564452       -2.3250892460
 H         -1.5774130142        0.5396986339        2.2591542040
 H         -0.8199734182        3.3733311321        2.5997694517
 H         -0.9923876125        1.8387795789        4.6081817282
 H          0.6540657042        2.4553885190        4.3889091564
 H          0.2645656867        0.8117140389        3.8897438266
 H         -0.3800532463        3.3227894863        0.2845383937
 H          2.4684510593        2.7829457656       -0.2818755292
 H          1.2666023686        4.7613514525       -1.3226648068
 H          0.1466153323        3.6338193835       -2.1045115783
 H          1.8594758862        3.6388973749       -2.5544408092
 C          2.1926354156       -0.7967085233       -1.3856318704
 C          2.5462493583       -1.7639767010       -0.4380965943
 C          1.8202241611       -1.1682137496       -2.6681870182
 C          2.5076237753       -3.1074947344       -0.8106889877
 C          2.1194721787       -3.4816187538       -2.0824897581
 C          1.7806774085       -2.5104251438       -3.0113991003
 H          1.5649901905       -0.4082360527       -3.3915512915
 H          2.0824312257       -4.5257078574       -2.3522136845
 H          1.4860481342       -2.7926900347       -4.0112548777
 H          2.7773937642       -3.8414389507       -0.0663572210
 C          2.9378178242       -1.4032654337        0.9429376638
 O          3.3724628478       -2.2005609080        1.7335830860
 H          2.7941999502       -0.3431544332        1.2021118762
