  56
        -94.15006047
 C         -2.3596238630       -2.1289766695       -1.4353032063
 C         -2.6200993183       -1.8631779125       -2.9132417375
 C         -3.0852740220       -1.1067655997       -0.5545694190
 O         -3.8032863810       -0.2257510059       -0.9979159391
 O         -0.5595802953       -4.2097372623       -0.6974173365
 O         -0.2084609122       -1.8755318482        1.8743829322
 N         -0.9511532290       -2.0184834738       -1.1057112314
 C         -0.2022844581       -3.0489502115       -0.6690943240
 C          1.1384587580       -2.6245599086       -0.0512509956
 C          0.9067995853       -2.6308167898        1.4751488441
 N          2.2269488036       -3.5364520439       -0.3485681843
 N         -2.8112077185       -1.2362804762        0.7588126575
 C         -3.0905113283       -0.1578727232        1.6968055045
 C         -2.9889313700       -0.6563155381        3.1263410582
 C         -2.0346970202        0.8982300416        1.3614918509
 O         -0.9151748279        0.9188684596        1.8557200017
 N         -2.3872818174        1.7430518060        0.3804088434
 O          0.0645282608        0.7088908180       -0.7127627611
 O          0.9649272478        2.5333856103        0.2328588328
 C         -1.3624499866        2.5940649694       -0.1998223245
 C         -0.0518842485        1.8078184530       -0.2259865325
 C         -1.7515639148        2.9924054306       -1.6175658210
 H         -2.6691972612       -3.1468532318       -1.1699768025
 H         -3.6886932794       -1.8826100035       -3.1064028462
 H         -2.1292688177       -2.6191742849       -3.5193343941
 H         -2.2379128122       -0.8825912482       -3.1869542039
 H         -0.0465768848       -0.9265510196        1.7491757010
 H         -0.5661518082       -1.0829542009       -1.0847119213
 H          1.4137111233       -1.6168192112       -0.3803706609
 H          1.8215538426       -2.2959556234        1.9763863634
 H          0.6938107280       -3.6574253373        1.7857454545
 H          2.4659607725       -3.4797483203       -1.3334303171
 H          1.9041335907       -4.4857862296       -0.1766021096
 H         -2.0755572713       -1.8723671022        1.0556666016
 H         -4.0888282604        0.2345201816        1.4770962983
 H         -3.7183077509       -1.4429531483        3.2978333054
 H         -3.1769173651        0.1605733315        3.8176402063
 H         -1.9921047937       -1.0494581824        3.3076724529
 H         -3.2028218922        1.5184565962       -0.1831115450
 H         -1.2147612340        3.4771935598        0.4340730999
 H         -2.6932844895        3.5350386535       -1.6025417809
 H         -1.8656160818        2.1024681141       -2.2328195405
 H         -0.9877501751        3.6294614307       -2.0559494717
 C          2.1997957773        1.8927287607        0.3502920902
 C          3.2496375897        2.2286891076       -0.5098243036
 C          2.3673391161        0.9337890121        1.3347939718
 C          4.4718712030        1.5705781879       -0.3573644460
 C          4.6391424832        0.6074293012        0.6168532762
 C          3.5881435645        0.2930084005        1.4658600234
 H          1.5374827944        0.7149778732        1.9896628811
 H          5.5854265848        0.0994650755        0.7194139817
 H          3.7186575202       -0.4553445342        2.2323461431
 H          5.2738545745        1.8383603877       -1.0288589380
 C          3.0866333942        3.2448632236       -1.5585130781
 O          3.9317536113        3.5520505800       -2.3582007118
 H          2.0921959089        3.7307482929       -1.5607841108
