  56
        -94.15003574
 C         -3.6120002352        1.3908893671       -1.5875872175
 C         -4.0200126860        1.5627310165       -3.0410439282
 C         -2.2983516123        2.1281743462       -1.2827043570
 O         -1.6031062880        2.6445080363       -2.1419371279
 O         -3.7960402745        0.1752821876        0.9411025312
 O         -1.3698984509       -1.9249462443       -1.4411212727
 N         -3.4320041166       -0.0211117868       -1.2804176301
 C         -3.5164777014       -0.5123207653       -0.0330496587
 C         -3.2238048504       -2.0077374208        0.0915695456
 C         -1.7132110906       -2.2158604650       -0.1059037155
 N         -3.6169826468       -2.5525760274        1.3740424322
 N         -1.9815837276        2.1056997163        0.0219503354
 C         -0.6488197637        2.4358623684        0.5037259879
 C         -0.6254207753        2.4285918672        2.0215557113
 C          0.2761589901        1.3574658620       -0.0760075678
 O          0.5016900623        0.2998832264        0.4896047868
 N          0.7924324380        1.6535249479       -1.2762137355
 O          1.4103630800       -1.6448637085       -1.2375867854
 O          2.9277244567       -0.1858902000       -0.3965630009
 C          1.4894443701        0.6419296567       -2.0560658230
 C          1.8645438048       -0.5333385893       -1.1428754793
 C          0.6370883830        0.1872954942       -3.2361371429
 H         -4.3892443213        1.7667420598       -0.9113665473
 H         -3.2223436306        1.2143899889       -3.6929909867
 H         -4.1939316254        2.6141961964       -3.2505986996
 H         -4.9267375336        1.0011627692       -3.2486819083
 H         -0.3987882790       -1.9757309539       -1.4977807322
 H         -2.9863916965       -0.6032716671       -1.9776019700
 H         -3.7522298652       -2.5507574356       -0.6999996716
 H         -1.4822509895       -3.2600362205        0.1384602866
 H         -1.1557302830       -1.5676625247        0.5835196126
 H         -4.6144736546       -2.4228617694        1.5102383481
 H         -3.1526592743       -2.0316216289        2.1127696451
 H         -2.5922576968        1.5958358191        0.6589700057
 H         -0.3636466476        3.4150915804        0.1016356833
 H         -1.3525539636        3.1354564370        2.4120302586
 H          0.3633125611        2.6961625939        2.3848456283
 H         -0.8623822540        1.4312907187        2.3852761726
 H          0.3587161661        2.4052126917       -1.8063447405
 H          2.4312275656        1.0838903357       -2.4086954315
 H          0.3925008090        1.0418998668       -3.8620303304
 H         -0.2856625271       -0.2628571343       -2.8798532033
 H          1.1764898833       -0.5475699742       -3.8270511886
 C          3.2981282203       -0.9871583131        0.6718537073
 C          3.3768095204       -0.3856432439        1.9358731705
 C          3.5814093951       -2.3335597475        0.5154848684
 C          3.7418727868       -1.1670197690        3.0313652003
 C          4.0285169135       -2.5085536728        2.8754848694
 C          3.9479116139       -3.0879821886        1.6187596332
 H          3.5066944573       -2.7875744248       -0.4596293382
 H          4.3103553906       -3.1055483673        3.7293465023
 H          4.1679712574       -4.1372270071        1.4917722718
 H          3.7902852550       -0.6893727580        3.9985460548
 C          3.0601501510        1.0360415715        2.1161097360
 O          2.9273237250        1.5872909462        3.1795810965
 H          2.9498908648        1.5937099981        1.1683583366
