  56
        -94.14998330
 C         -1.7167810948       -2.8448062650       -1.0848560195
 C         -1.9397176035       -3.2019693129       -2.5447071816
 C         -2.6586209605       -1.7122625217       -0.6351948049
 O         -3.3087030229       -1.0338524338       -1.4153272292
 O         -0.2717562086       -2.7142983550        1.3535198492
 O          2.3021828431       -3.9743219974       -1.2154304334
 N         -0.3373627285       -2.4377358270       -0.8866267167
 C          0.2788515769       -2.4298377339        0.2979642852
 C          1.7658710798       -2.1065038819        0.2408962506
 C          2.5296350712       -3.4362094916        0.0559048699
 N          2.0787069161       -1.2581995715       -0.9024438262
 N         -2.6961035980       -1.5720931772        0.6967100912
 C         -3.3920705029       -0.4740403499        1.3508482933
 C         -3.5009405506       -0.7479987411        2.8400705507
 C         -2.5554902397        0.7762389944        1.0605235451
 O         -1.6678497383        1.1775375601        1.7902302706
 N         -2.8396526784        1.3614345252       -0.1227232008
 O         -0.1806714929        0.6572624343       -0.6672037413
 O          0.3427788976        2.6868014257        0.1340228506
 C         -1.8931870031        2.3473428409       -0.6165183704
 C         -0.4979001566        1.7821932683       -0.3708889267
 C         -2.1112706683        2.5912523882       -2.1032031634
 H         -1.8999177198       -3.7121237672       -0.4374141416
 H         -1.2314549686       -3.9647414757       -2.8573488794
 H         -1.8193325084       -2.3157862101       -3.1633525641
 H         -2.9505694633       -3.5751184246       -2.6823921358
 H          2.3885844561       -3.2397042059       -1.8404945593
 H          0.1744526147       -2.0946552248       -1.6855814357
 H          2.0433487850       -1.6736407461        1.2145572318
 H          2.1924691096       -4.1726905881        0.7874739099
 H          3.6045532514       -3.2502952352        0.2090964374
 H          3.0379393038       -0.9314683292       -0.8386198200
 H          1.4727538539       -0.4424008093       -0.8974115511
 H         -1.9828834129       -2.0618733403        1.2431851593
 H         -4.3787882084       -0.3693635540        0.8855099208
 H         -4.0682547945        0.0431623615        3.3226332056
 H         -2.5054265756       -0.7758725564        3.2764994428
 H         -3.9958124475       -1.6997730231        3.0129142502
 H         -3.3293312552        0.7939098881       -0.8136599133
 H         -1.9973771964        3.2731950229       -0.0389499309
 H         -3.1221148759        2.9537243498       -2.2704137290
 H         -1.9728862170        1.6616465507       -2.6512499371
 H         -1.4065604932        3.3311929359       -2.4738787378
 C          1.5660429045        2.2174045182        0.6051715836
 C          2.7585913824        2.6592514797        0.0225318400
 C          1.5803456827        1.3233925270        1.6644915268
 C          3.9674121332        2.1796269153        0.5324177329
 C          3.9857821346        1.2897522194        1.5871889696
 C          2.7919148599        0.8663299599        2.1554101209
 H          0.6398827710        1.0043962130        2.0888903446
 H          4.9264972263        0.9265184575        1.9723962897
 H          2.8013914088        0.1786751692        2.9876993186
 H          4.8804204188        2.5284517516        0.0733273860
 C          2.7579567270        3.5997444074       -1.1059399158
 O          3.7409484131        3.9666828253       -1.6962746557
 H          1.7506373571        3.9599542342       -1.3871180270
