  56
        -94.14998162
 C         -1.5668049228       -2.9130807904       -1.0820996324
 C         -1.7720224166       -3.2891471622       -2.5398456570
 C         -2.5656015321       -1.8280054064       -0.6381800376
 O         -3.2476139259       -1.1862806775       -1.4221370893
 O         -0.1302938705       -2.6916712150        1.3548819674
 O          2.5029778084       -3.8338225531       -1.2137647161
 N         -0.2096725594       -2.4358281623       -0.8873007372
 C          0.4052028503       -2.3876456016        0.2970337633
 C          1.8741476793       -1.9903310962        0.2366407639
 C          2.7039762290       -3.2803643351        0.0554131299
 N          2.1424723781       -1.1317400203       -0.9103920903
 N         -2.6141210245       -1.6859560573        0.6931581323
 C         -3.3716751046       -0.6261055555        1.3420043126
 C         -3.4746109583       -0.9044075129        2.8308647346
 C         -2.6016654794        0.6670597046        1.0556280984
 O         -1.7438604744        1.1171572035        1.7923719880
 N         -2.9061995326        1.2331208519       -0.1321058687
 O         -0.2205642800        0.6498547829       -0.6659319775
 O          0.2122032427        2.7003813688        0.1340893408
 C         -2.0056528064        2.2624242160       -0.6236115072
 C         -0.5870032622        1.7609893148       -0.3741038465
 C         -2.2315017057        2.4962589507       -2.1106884679
 H         -1.7053879052       -3.7851018051       -0.4299011478
 H         -1.6984282596       -2.4011880331       -3.1632726196
 H         -2.7622081063       -3.7151159095       -2.6744435976
 H         -1.0252884910       -4.0157135661       -2.8491896447
 H          2.5523354379       -3.0980899775       -1.8415388737
 H          0.2836703628       -2.0720753941       -1.6887016088
 H          2.1307444423       -1.5399719985        1.2081402084
 H          2.4052821823       -4.0303967482        0.7899194775
 H          3.7682057060       -3.0395862780        0.2067663939
 H          3.0831920470       -0.7547622209       -0.8480611455
 H          1.4942689908       -0.3491232505       -0.9085439455
 H         -1.8761491034       -2.1340146508        1.2425485627
 H         -4.3597288343       -0.5751091070        0.8705832302
 H         -3.9188428239       -1.8811539128        3.0019252199
 H         -4.0862863135       -0.1442977805        3.3091289961
 H         -2.4816361043       -0.8785057814        3.2731637480
 H         -3.3600348709        0.6380660737       -0.8244896599
 H         -2.1539878123        3.1820972490       -0.0459518819
 H         -1.5614690556        3.2686166057       -2.4795424967
 H         -3.2578837816        2.8108933279       -2.2800629074
 H         -2.0484320391        1.5743247062       -2.6586210040
 C          1.4493020513        2.2784079468        0.6154261152
 C          2.6294669960        2.7415140880        0.0243942524
 C          1.4873023688        1.4064368576        1.6923093355
 C          3.8506938209        2.3067227114        0.5450699167
 C          3.8927709272        1.4396981103        1.6180581080
 C          2.7105618116        0.9938920668        2.1936234905
 H          0.5555069647        1.0677870321        2.1205400291
 H          4.8428613377        1.1109225103        2.0111660532
 H          2.7380243958        0.3229396736        3.0390136460
 H          4.7541241843        2.6712881497        0.0792458794
 C          2.6038177835        3.6566976757       -1.1243850920
 O          3.5766579515        4.0356141889       -1.7239376242
 H          1.5873425643        3.9846120451       -1.4122109588
