  56
        -94.14997851
 C         -1.8130661481       -2.8022413836       -1.0796976027
 C         -2.0518283839       -3.1568689531       -2.5376459261
 C         -2.7157852876       -1.6379074244       -0.6311082095
 O         -3.3443018767       -0.9398765564       -1.4115790180
 O         -0.3580326253       -2.7123258944        1.3541782136
 O          2.1650543597       -4.0631239660       -1.2185579936
 N         -0.4206064184       -2.4394869137       -0.8864914196
 C          0.1988229806       -2.4488816454        0.2964609722
 C          1.6954674661       -2.1747931438        0.2344258542
 C          2.4142508828       -3.5295041621        0.0506200106
 N          2.0325843500       -1.3400823209       -0.9120257875
 N         -2.7454681177       -1.4931923834        0.7005354450
 C         -3.4020855688       -0.3702258957        1.3529740226
 C         -3.5164338701       -0.6357254760        2.8433173245
 C         -2.5244008730        0.8500904730        1.0568115051
 O         -1.6209915444        1.2225960078        1.7825152150
 N         -2.7921883583        1.4421804395       -0.1266332426
 O         -0.1526595206        0.6585899632       -0.6703619802
 O          0.4271087119        2.6736694312        0.1298202888
 C         -1.8160818453        2.3972292682       -0.6233654399
 C         -0.4381700884        1.7920597272       -0.3743470227
 C         -2.0252617387        2.6416052335       -2.1112589738
 H         -2.0224338053       -3.6609622171       -0.4287676001
 H         -1.9049778299       -2.2771155374       -3.1597397815
 H         -3.0745638429       -3.4978355736       -2.6709924606
 H         -1.3694306435       -3.9430816821       -2.8497477456
 H          2.2738061638       -3.3334479128       -1.8459058462
 H          0.1001558722       -2.1158437466       -1.6877887708
 H          1.9899751973       -1.7490447403        1.2061923726
 H          2.0552768429       -4.2525500746        0.7852088847
 H          3.4952186840       -3.3788813041        0.1999430888
 H          3.0027484004       -1.0464417030       -0.8525637710
 H          1.4552571162       -0.5037736080       -0.9061302318
 H         -2.0475967954       -2.0049984117        1.2466509488
 H         -4.3858464109       -0.2335233575        0.8896961363
 H         -4.0555511300        0.1756169361        3.3246927342
 H         -2.5213484639       -0.6957791670        3.2774767069
 H         -4.0427010873       -1.5697193584        3.0203711459
 H         -3.3028475399        0.8908121176       -0.8153569220
 H         -1.8930978615        3.3281425036       -0.0496198395
 H         -3.0246150088        3.0335117093       -2.2811408045
 H         -1.9141060245        1.7061046517       -2.6554561505
 H         -1.2983062567        3.3586132807       -2.4840441313
 C          1.6378944276        2.1741563340        0.6012075655
 C          2.8415126203        2.6028257635        0.0314195624
 C          1.6306253224        1.2661462554        1.6486722642
 C          4.0387745912        2.0949533319        0.5411166726
 C          4.0355138810        1.1903374124        1.5833989741
 C          2.8311711659        0.7808251411        2.1394913353
 H          0.6826000320        0.9596203961        2.0653172876
 H          4.9674526215        0.8052054371        1.9686344996
 H          2.8238848975        0.0822703530        2.9626942531
 H          4.9603595324        2.4340806278        0.0920327390
 C          2.8639591126        3.5595305484       -1.0830882882
 O          3.8568197771        3.9189785005       -1.6614356722
 H          1.8646088952        3.9403252161       -1.3655031323
