  56
        -94.14997613
 C         -1.8660997070       -2.7725254548       -1.0822337376
 C         -2.1096528340       -3.1169402961       -2.5418313195
 C         -2.7469494561       -1.5928576719       -0.6302675098
 O         -3.3634998141       -0.8819256615       -1.4086419005
 O         -0.4120835325       -2.7210930671        1.3535088581
 O          2.0885574112       -4.1082726104       -1.2207573421
 N         -0.4672415260       -2.4368805475       -0.8859517060
 C          0.1507292316       -2.4633704232        0.2974993785
 C          1.6522250219       -2.2168131037        0.2384116367
 C          2.3458682589       -3.5840670011        0.0507219540
 N          2.0064399324       -1.3845023094       -0.9045906343
 N         -2.7720008788       -1.4500405810        0.7016510075
 C         -3.4044159810       -0.3152030756        1.3574112239
 C         -3.5182058787       -0.5798478692        2.8479452214
 C         -2.5043097505        0.8881768023        1.0590432154
 O         -1.5909167050        1.2423582917        1.7814941317
 N         -2.7652839417        1.4868082268       -0.1225026238
 O         -0.1381048003        0.6603481484       -0.6715647213
 O          0.4738162953        2.6661732796        0.1286254843
 C         -1.7740620222        2.4251104005       -0.6211057449
 C         -0.4056963920        1.7977713819       -0.3740210819
 C         -1.9813915582        2.6721664348       -2.1088332941
 H         -2.0925518124       -3.6295873293       -0.4348461231
 H         -1.9444234110       -2.2379724330       -3.1604220661
 H         -3.1387636134       -3.4369935000       -2.6779082211
 H         -1.4425246716       -3.9153631780       -2.8559338808
 H          2.2114494797       -3.3783408464       -1.8452036708
 H          0.0603807446       -2.1195646589       -1.6853076122
 H          1.9531483672       -1.8002338329        1.2121854105
 H          1.9723463821       -4.3029298959        0.7821649986
 H          3.4292479757       -3.4542623430        0.2020949150
 H          2.9818817328       -1.1094235354       -0.8429064390
 H          1.4450395246       -0.5374190473       -0.8968421019
 H         -2.0846814370       -1.9776759377        1.2461117326
 H         -4.3870977464       -0.1588339475        0.8980580241
 H         -4.0387904952        0.2417729776        3.3322756221
 H         -2.5228173511       -0.6605555342        3.2780521557
 H         -4.0625965974       -1.5031575927        3.0262317436
 H         -3.2887579959        0.9462608728       -0.8101853474
 H         -1.8347455909        3.3575499666       -0.0478293855
 H         -1.8867744763        1.7346276569       -2.6526408371
 H         -1.2430885872        3.3766692486       -2.4831557965
 H         -2.9742950999        3.0806862663       -2.2774148003
 C          1.6786952590        2.1501243844        0.5967379562
 C          2.8868225566        2.5704368301        0.0301961223
 C          1.6620267545        1.2353364257        1.6382258092
 C          4.0787455347        2.0471486659        0.5367336274
 C          4.0660615467        1.1355716343        1.5728521733
 C          2.8574837255        0.7345880374        2.1259194582
 H          0.7109296079        0.9363044466        2.0533166793
 H          4.9939531094        0.7385985415        1.9558239012
 H          2.8429975477        0.0307759187        2.9445437448
 H          5.0038370995        2.3801730016        0.0903191371
 C          2.9193165289        3.5346310245       -1.0776101113
 O          3.9160978746        3.8890356597       -1.6523098977
 H          1.9238234871        3.9264707476       -1.3584886466
