  56
        -94.15297682
 C         -2.1216238318        0.1241197699       -1.8274152954
 C         -1.8787829773       -0.9782630577       -2.8450253611
 C         -0.8560288375        0.9685827594       -1.5996439734
 O          0.2394383529        0.6583973172       -2.0286393313
 O         -3.6915476095        1.3742804885        0.1322652085
 O         -1.3259296698       -1.1179696930        1.9290621920
 N         -2.5485297162       -0.4477142382       -0.5599429604
 C         -3.3055335213        0.2296909636        0.3235411026
 C         -3.6883879636       -0.5614694407        1.5750090812
 C         -2.4835637352       -0.6082813158        2.5437107431
 N         -4.8223082850        0.0103615427        2.2725737171
 N         -1.0997204361        2.0758099418       -0.8759016165
 C         -0.0133946337        2.8200969695       -0.2700587706
 C         -0.5154226029        4.1679092555        0.2291477595
 C          0.5151535923        1.9789362250        0.9011676865
 O         -0.2515053068        1.4461304690        1.6874189236
 N          1.8508699388        1.9016927906        1.0018381731
 O          3.5206730718       -1.1437724536        1.1768671690
 O          1.3859870558       -0.6931661223        0.6095858393
 C          2.4882176721        0.9454439853        1.8858264969
 C          2.5767565195       -0.4087468997        1.1734834412
 C          3.8681322584        1.4246410460        2.3035839300
 H         -2.9275441633        0.7916768053       -2.1558198574
 H         -2.7650157186       -1.5986192720       -2.9506399095
 H         -1.0396905673       -1.5943443397       -2.5305981711
 H         -1.6340145845       -0.5381746766       -3.8073877912
 H         -0.7406591007       -0.3657473044        1.7404592200
 H         -2.0732622732       -1.2806786321       -0.2401937991
 H         -3.9388476096       -1.5866719412        1.2795354475
 H         -2.7506942369       -1.2647600022        3.3776816794
 H         -2.3069259869        0.3975079546        2.9328798253
 H         -5.6408437688       -0.0061391949        1.6724262100
 H         -4.6272528705        0.9881050018        2.4703387139
 H         -2.0227517347        2.1839913273       -0.4612729731
 H          0.7704233889        2.9403853751       -1.0251562296
 H         -0.9492186540        4.7329653362       -0.5918957994
 H          0.3040276249        4.7379361115        0.6590846917
 H         -1.2748388500        4.0138716607        0.9926362905
 H          2.4143583560        2.1620652208        0.2036730678
 H          1.8259751717        0.8185428168        2.7518221992
 H          3.7957696678        2.3693527312        2.8351898793
 H          4.4925161529        1.5514198676        1.4227330375
 H          4.3323269560        0.6828997871        2.9464421158
 C          1.3197608557       -1.6680683408       -0.3608857637
 C          2.0420640014       -1.5323507177       -1.5545507427
 C          0.4584819856       -2.7363717118       -0.1643674326
 C          1.8944728917       -2.5201981203       -2.5297358839
 C          1.0608476748       -3.6012060232       -2.3257270603
 C          0.3338136509       -3.7025410572       -1.1474590376
 H         -0.1020767689       -2.7835209556        0.7570579149
 H          0.9627504307       -4.3596993094       -3.0873120547
 H         -0.3322225922       -4.5382001085       -0.9933483349
 H          2.4429039296       -2.4236855859       -3.4551958078
 C          2.8668342412       -0.3568112673       -1.8421549400
 O          3.1585342029        0.5334864730       -1.0804377508
 H          3.2278716701       -0.3340417839       -2.8870683050
