  56
        -94.14997186
 C         -1.9182465208       -2.7395375101       -1.0873204442
 C         -2.1642798576       -3.0706889753       -2.5495621333
 C         -2.7773300051       -1.5456720598       -0.6308216123
 O         -3.3812207953       -0.8209870223       -1.4064285676
 O         -0.4693536634       -2.7326729449        1.3521194918
 O          2.0106395954       -4.1492960902       -1.2271060611
 N         -0.5136738807       -2.4320888647       -0.8854410874
 C          0.1009277011       -2.4788668263        0.2991230290
 C          1.6069883074       -2.2610292389        0.2453636901
 C          2.2742384263       -3.6402499892        0.0492234784
 N          1.9803670487       -1.4276744493       -0.8907278371
 N         -2.7986634558       -1.4066935862        0.7015596621
 C         -3.4067037464       -0.2610665244        1.3615809567
 C         -3.5209737820       -0.5264473441        2.8519272496
 C         -2.4838268938        0.9248246114        1.0625596546
 O         -1.5601265858        1.2585557675        1.7817353598
 N         -2.7378994227        1.5319247828       -0.1160399751
 O         -0.1239104728        0.6620816936       -0.6715319910
 O          0.5207958869        2.6572563388        0.1303405717
 C         -1.7313197530        2.4531386979       -0.6155760113
 C         -0.3731486158        1.8029195032       -0.3711882907
 C         -1.9364582655        2.7043401444       -2.1029444383
 H         -2.1629696495       -3.5957791495       -0.4455230900
 H         -1.9793170423       -2.1917689161       -3.1626175419
 H         -3.1992583185       -3.3689461864       -2.6905060364
 H         -1.5125041746       -3.8806716988       -2.8662802641
 H          2.1492636512       -3.4167780773       -1.8452428196
 H          0.0218368587       -2.1196753803       -1.6814834010
 H          1.9134233257       -1.8577130389        1.2229851457
 H          1.8843458192       -4.3572693699        0.7739077603
 H          3.3594743493       -3.5330096689        0.2048338643
 H          2.9604321214       -1.1708956753       -0.8239455018
 H          1.4345436508       -0.5704917725       -0.8799902603
 H         -2.1230129602       -1.9510663949        1.2441633710
 H         -4.3875661407       -0.0842361607        0.9057583793
 H         -4.0825862123       -1.4394077138        3.0301018217
 H         -4.0240629099        0.3041003530        3.3395145020
 H         -2.5260068422       -0.6273108710        3.2787427725
 H         -3.2744443898        1.0037973708       -0.8032777565
 H         -1.7751389026        3.3863234784       -0.0419239652
 H         -1.8593081246        1.7654209237       -2.6471218512
 H         -1.1863100985        3.3957091715       -2.4782066210
 H         -2.9221942012        3.1304912730       -2.2699446084
 C          1.7202783641        2.1243295506        0.5926627840
 C          2.9319090455        2.5376476100        0.0283602486
 C          1.6958920525        1.2009603495        1.6264435695
 C          4.1192124388        1.9983242058        0.5287771630
 C          4.0987726222        1.0778992489        1.5569169063
 C          2.8869687420        0.6842477788        2.1081460115
 H          0.7424846564        0.9084106972        2.0408722347
 H          5.0231483913        0.6684623078        1.9352290873
 H          2.8666720271       -0.0262858759        2.9208259813
 H          5.0469960922        2.3261568980        0.0841316942
 C          2.9726152089        3.5114436675       -1.0707776913
 O          3.9723373851        3.8622416394       -1.6425618009
 H          1.9805555750        3.9145762721       -1.3477379912
