  56
        -94.14989295
 C         -1.6360537750       -1.8400689931       -2.3971826194
 C         -2.2598272015       -1.1485952046       -3.5971621984
 C         -2.5128102141       -1.6961309979       -1.1437795710
 O         -3.4747537594       -0.9508122957       -1.0824179536
 O          0.5196667320       -3.1154819252       -1.1863429653
 O          2.6001463824       -2.7796890097        0.5394497028
 N         -0.3462499119       -1.2388399473       -2.0818292311
 C          0.6181447237       -1.9139541285       -1.4393392201
 C          1.8760503427       -1.1198897933       -1.0976432434
 C          2.2546109132       -1.4344897356        0.3630112991
 N          2.9961717164       -1.4642386372       -1.9592765310
 N         -2.0708073388       -2.4344771927       -0.1108495220
 C         -2.4776072205       -2.1656922747        1.2619362248
 C         -1.9531838410       -3.2527773790        2.1819733335
 C         -1.8696120444       -0.7934235285        1.5999697955
 O         -0.7558409102       -0.6558162725        2.0706808293
 N         -2.6550068464        0.2478240030        1.2638326528
 O         -0.3827258334        1.0267864832       -0.3204331044
 O          0.1873654361        2.1334192031        1.5538574989
 C         -2.0905923196        1.5861748963        1.2944337195
 C         -0.6718796573        1.5297820205        0.7364473439
 C         -2.9264944534        2.5321671028        0.4430878843
 H         -1.4559842042       -2.9025130020       -2.5967027568
 H         -1.5967351540       -1.2060916864       -4.4561874358
 H         -2.4542156238       -0.1054118457       -3.3600041580
 H         -3.2056557848       -1.6232014617       -3.8421653299
 H          1.8980688999       -3.3087300586        0.1193879337
 H         -0.3241610410       -0.2286303874       -2.0474523785
 H          1.6726898805       -0.0484560565       -1.1948832666
 H          1.4169203625       -1.1477632601        1.0160316784
 H          3.1353246379       -0.8479832601        0.6337196556
 H          2.7021186604       -1.5448683381       -2.9266517541
 H          3.3740832485       -2.3606203782       -1.6642665317
 H         -1.2180560337       -2.9715783841       -0.2326197796
 H         -3.5707978842       -2.1032040022        1.2908206498
 H         -2.2650373627       -4.2319131182        1.8279553571
 H         -2.3329797844       -3.1005553096        3.1884745385
 H         -0.8667229427       -3.2082480919        2.2155226545
 H         -3.4124386964        0.0787867782        0.6075333939
 H         -2.0294957373        1.9322537536        2.3328200339
 H         -3.9175469977        2.6446404725        0.8747764283
 H         -3.0171563713        2.1313123254       -0.5640840673
 H         -2.4442675580        3.5040210274        0.3853584470
 C          1.5218033596        2.1910967714        1.1933246996
 C          1.9389267052        2.8280250234        0.0164885192
 C          2.4417299411        1.5891404695        2.0368751526
 C          3.2988804445        2.8070795131       -0.3012700066
 C          4.2154201730        2.2091342675        0.5390686139
 C          3.7872983444        1.6098809089        1.7149683146
 H          2.0821101174        1.0986737406        2.9272391288
 H          5.2627361404        2.2057795888        0.2802385163
 H          4.5009149991        1.1430206127        2.3762746253
 H          3.6269575042        3.2833441623       -1.2135701520
 C          1.0072874237        3.5466556823       -0.8616032934
 O         -0.1128859801        3.8943137880       -0.5859803755
 H          1.4476753446        3.7881985338       -1.8497692172
