  56
        -94.14988260
 C         -1.4406521470       -2.9147306739       -1.1565597236
 C         -1.9347039375       -3.0219283225       -2.5889147381
 C         -2.4310483830       -2.1402082617       -0.2737366629
 O         -3.3787080628       -1.5174118649       -0.7196725015
 O          0.5647092448       -3.2313799753        0.7443291010
 O          2.4931015536       -1.9360933160        2.1687318140
 N         -0.1766341950       -2.1904409457       -1.1103437243
 C          0.7103017569       -2.3655688071       -0.1195893326
 C          1.9475232969       -1.4730449086       -0.1651244827
 C          2.1889820735       -0.9213231096        1.2535316771
 N          3.1325660265       -2.1972604613       -0.5974938831
 N         -2.1064938197       -2.1775044423        1.0302582007
 C         -2.6425994919       -1.2196758991        1.9880461762
 C         -2.2376277526       -1.6108885952        3.3973404160
 C         -2.0415026371        0.1364274006        1.5800786719
 O         -0.9790326518        0.5496294718        2.0060052623
 N         -2.7641776247        0.7958066127        0.6544349246
 O         -0.3163027137        0.6729993480       -0.8563529333
 O          0.0730530448        2.6415587394        0.1629521704
 C         -2.1752604704        1.9539547586        0.0042860578
 C         -0.7058234879        1.6577056680       -0.2800455131
 C         -2.8904321183        2.2452647259       -1.3079523686
 H         -1.2603847023       -3.9040767587       -0.7209595290
 H         -1.1925658258       -3.5149491621       -3.2110797875
 H         -2.1353906035       -2.0290074048       -2.9839640534
 H         -2.8594485268       -3.5911905906       -2.6152321726
 H          1.8201463509       -2.6310038231        2.0529275010
 H         -0.1383595714       -1.3281214814       -1.6366160220
 H          1.7740441954       -0.6383607564       -0.8519789552
 H          1.3014485533       -0.3522241200        1.5679498086
 H          3.0522081809       -0.2525466828        1.2305619072
 H          2.9237624296       -2.8047134433       -1.3824674209
 H          3.4654658598       -2.7720281796        0.1720137442
 H         -1.2554409093       -2.6600825112        1.3013341186
 H         -3.7314967907       -1.1913044014        1.8727279754
 H         -1.1591468183       -1.5174848927        3.5051459320
 H         -2.5355485150       -2.6349248244        3.6068006760
 H         -2.7118866466       -0.9480722683        4.1158228623
 H         -3.4557761921        0.2692533556        0.1277041682
 H         -2.2193309040        2.8143061662        0.6822757093
 H         -2.8815321502        1.3548783807       -1.9327763600
 H         -2.3806495578        3.0443645580       -1.8389955128
 H         -3.9192831389        2.5374726412       -1.1149056322
 C          1.4404158484        2.5474225534       -0.0238972965
 C          2.0039414882        2.4569775275       -1.3039906054
 C          2.2436156602        2.5414229624        1.1053893263
 C          3.3903624760        2.3237631016       -1.4090816404
 C          4.1906460329        2.3200711056       -0.2851453172
 C          3.6171405367        2.4403185094        0.9726218099
 H          1.7732002659        2.6005726284        2.0738059121
 H          5.2602733056        2.2205300359       -0.3847687103
 H          4.2393362792        2.4391594711        1.8543180987
 H          3.8315386487        2.2389367564       -2.3913715679
 C          1.1959097133        2.5417508049       -2.5267964520
 O          0.0609488483        2.9376487062       -2.6092636205
 H          1.7507084680        2.2218400604       -3.4315774907
