  56
        -94.14988252
 C          1.7615220706       -2.4005460929       -0.0857899578
 C          2.8781623375       -3.3533702538       -0.5029558049
 C          0.3947657334       -3.0999987248       -0.2085459281
 O          0.0821859980       -3.6799780200       -1.2273725552
 O          2.4188311830        0.3291501933        0.4500000440
 O          3.0441193977        2.7614578716       -0.5934310549
 N          1.6947383600       -1.2626885585       -0.9827842035
 C          2.0045079269       -0.0113323627       -0.6555413189
 C          1.8030482508        1.0112612362       -1.7781381919
 C          2.9847655965        2.0109311426       -1.7695966444
 N          1.5973266139        0.3419723040       -3.0516962403
 N         -0.3994288401       -2.9787858474        0.8694173361
 C         -1.7991333794       -3.3508329875        0.8191228636
 C         -2.3635286390       -3.4552519942        2.2302826108
 C         -2.6419178563       -2.3511140531        0.0029257702
 O         -3.6907400518       -2.6672870074       -0.5131344740
 N         -2.1188087570       -1.1118573502       -0.0541805808
 O         -2.9685479106        2.3009143832       -0.4190235033
 O         -1.0673713534        1.2397012140        0.1918066260
 C         -2.7045071056       -0.0616604251       -0.8540846860
 C         -2.3026003323        1.3082047646       -0.3327704611
 C         -2.2387419555       -0.1617424900       -2.3165483905
 H          1.9337281797       -2.0118367564        0.9210987483
 H          3.8273517843       -2.8257445129       -0.5548910049
 H          2.6443563391       -3.7788410072       -1.4761140392
 H          2.9614639756       -4.1616936964        0.2183837781
 H          3.0147869533        2.1226875172        0.1414206908
 H          1.3483614090       -1.4344136767       -1.9196965044
 H          0.8935334525        1.5723223526       -1.5317551993
 H          2.8670467522        2.7237924085       -2.5927355822
 H          3.9215644677        1.4496424647       -1.9280064166
 H          2.4793705402       -0.0245703453       -3.3979984597
 H          1.2511257427        0.9967016953       -3.7441226071
 H         -0.1250425439       -2.3540647047        1.6167234776
 H         -1.8754959279       -4.3131840605        0.3014114098
 H         -2.2634125252       -2.5005940907        2.7435287272
 H         -1.8343256870       -4.2186850765        2.7955263362
 H         -3.4165135959       -3.7178519764        2.1821073104
 H         -1.2647072185       -0.8915411406        0.4412033385
 H         -3.7957663369       -0.1565120404       -0.8195877497
 H         -2.6943567140        0.6264028418       -2.9101540432
 H         -2.5433929350       -1.1269222756       -2.7117189674
 H         -1.1547000186       -0.0835148118       -2.3767500399
 C         -0.3770218881        2.3002759753        0.7376927928
 C          0.5643182035        1.9740047374        1.7316350918
 C         -0.5144481111        3.6087334463        0.3017815353
 C          1.3560456632        2.9940887223        2.2594080974
 C          1.2139997045        4.2973270821        1.8290086359
 C          0.2784029778        4.6009049522        0.8533331035
 H         -1.2364815982        3.8483436110       -0.4618049460
 H          1.8351698035        5.0751971909        2.2439474829
 H          0.1683938322        5.6165963592        0.5062318244
 H          2.0887697300        2.7451659311        3.0123238904
 C          0.7466551506        0.6068284130        2.2201503143
 O          0.0516662718       -0.3539162489        1.9661370620
 H          1.5799849150        0.5131876642        2.9371572866
