  56
        -94.14988111
 C         -1.4288430411       -2.9187815764       -1.1521667728
 C         -1.9245512364       -3.0264848171       -2.5839317384
 C         -2.4214982416       -2.1490611686       -0.2676137782
 O         -3.3741863279       -1.5328139733       -0.7119165465
 O          0.5802476244       -3.2252507027        0.7475960105
 O          2.5106166331       -1.9241433208        2.1643749609
 N         -0.1674051074       -2.1900167781       -1.1077931472
 C          0.7216246749       -2.3606016406       -0.1182123779
 C          1.9562740287       -1.4647368123       -0.1680972303
 C          2.2007763932       -0.9110691426        1.2492287843
 N          3.1417401224       -2.1864376674       -0.6035978467
 N         -2.0937439923       -2.1830934008        1.0356764085
 C         -2.6328861693       -1.2269224706        1.9934760656
 C         -2.2214754932       -1.6131780231        3.4022574151
 C         -2.0403704445        0.1314735987        1.5808421545
 O         -0.9781373665        0.5505298307        2.0017175609
 N         -2.7693947095        0.7853401737        0.6563372749
 O         -0.3211918983        0.6703379712       -0.8570813430
 O          0.0574948322        2.6427504889        0.1588261335
 C         -2.1873185759        1.9432733955       -0.0004902384
 C         -0.7160356548        1.6539498849       -0.2824511891
 C         -2.9033183137        2.2217892141       -1.3150811952
 H         -1.2444248632       -3.9078321271       -0.7176060607
 H         -2.8496740480       -3.5951574730       -2.6089227519
 H         -1.1834145252       -3.5200761369       -3.2068164585
 H         -2.1251614041       -2.0336225897       -2.9791850744
 H          1.8388282149       -2.6207129268        2.0517999246
 H         -0.1325961531       -1.3284691464       -1.6355502953
 H          1.7785006797       -0.6310987536       -0.8551449284
 H          1.3126249197       -0.3441436600        1.5658387444
 H          3.0620243239       -0.2398614415        1.2229539626
 H          2.9317003070       -2.7959527374       -1.3866497889
 H          3.4790955697       -2.7588536367        0.1657283693
 H         -1.2393145925       -2.6605966657        1.3052582629
 H         -3.7222479686       -1.2050922158        1.8812186502
 H         -2.5107191382       -2.6392911718        3.6136664139
 H         -2.6992661321       -0.9533065985        4.1211146020
 H         -1.1435027364       -1.5111161546        3.5072866340
 H         -3.4611059918        0.2545710529        0.1340468419
 H         -2.2370517425        2.8076375118        0.6719682132
 H         -2.8896581269        1.3270165116       -1.9335324727
 H         -2.3972135588        3.0196561918       -1.8514990479
 H         -3.9337287970        2.5102094674       -1.1246986364
 C          1.4254763425        2.5537478852       -0.0258490883
 C          1.9910021125        2.4604707676       -1.3048281707
 C          2.2271340767        2.5548115988        1.1045325247
 C          3.3780101376        2.3317495850       -1.4076136250
 C          4.1767821360        2.3352868359       -0.2825985523
 C          3.6011818919        2.4582334214        0.9739590050
 H          1.7551465418        2.6156554233        2.0720671380
 H          5.2468796658        2.2391236113       -0.3804245151
 H          4.2221723542        2.4625377863        1.8564885577
 H          3.8207965917        2.2446469678       -2.3889707573
 C          1.1841659003        2.5374616313       -2.5289548367
 O          0.0485513346        2.9308054811       -2.6146915354
 H          1.7405879317        2.2140624312       -3.4314948943
