  56
        -94.14986424
 C         -2.2218135116       -1.4686169139       -2.1828238702
 C         -2.5945595961       -0.5425368476       -3.3282725851
 C         -2.9012269466       -1.0361965299       -0.8759560037
 O         -3.5949294264       -0.0397286679       -0.7750330727
 O         -0.6919677993       -3.5126070634       -1.0599096581
 O          1.7095273237       -1.6837518553        0.8419324033
 N         -0.7771884568       -1.4654953705       -1.9925443835
 C         -0.1149711895       -2.5106988602       -1.4642539866
 C          1.4124369631       -2.4165658848       -1.4813105894
 C          1.9433669942       -1.3492715203       -0.4986572588
 N          2.0394800711       -3.6853302549       -1.1685922171
 N         -2.6213821454       -1.8621716364        0.1474170993
 C         -2.7833618726       -1.4518774054        1.5341713626
 C         -2.4348148616       -2.6010063209        2.4622911348
 C         -1.8143950496       -0.2716347496        1.6902495008
 O         -0.6265099476       -0.4198194115        1.9369191934
 N         -2.3608078781        0.9286143491        1.4475588673
 O         -0.1064075165        1.1197161256       -0.4120826804
 O          0.8409071003        2.0580907447        1.4050386039
 C         -1.5054760913        2.0951504068        1.3067723920
 C         -0.1910642102        1.6772546315        0.6529417705
 C         -2.1863475222        3.1395191202        0.4322921201
 H         -2.5101624765       -2.5049047559       -2.3988032345
 H         -2.1084329157       -0.8585439527       -4.2474299779
 H         -2.2912752251        0.4743460836       -3.0899487321
 H         -3.6714443014       -0.5514555139       -3.4694993430
 H          0.8582270360       -1.3288178740        1.1457518265
 H         -0.3130375789       -0.5760267853       -2.1020388988
 H          1.7091847777       -2.1188506302       -2.4977605539
 H          1.5282195518       -0.3697737194       -0.7522345966
 H          3.0308604594       -1.3134782905       -0.6198634122
 H          1.4459872808       -4.4473958310       -1.4842427711
 H          2.1085443632       -3.7642949407       -0.1570933310
 H         -2.0144282173       -2.6604232391       -0.0332373080
 H         -3.8136833476       -1.1106257211        1.6857284720
 H         -1.3834546721       -2.8567777211        2.3502056847
 H         -3.0422621323       -3.4709016590        2.2271007442
 H         -2.6115706635       -2.3115733666        3.4947003822
 H         -3.2452819740        0.9508110752        0.9487190139
 H         -1.2701027045        2.4975088917        2.2993908437
 H         -2.4712460284        2.6871757468       -0.5151342671
 H         -1.5017214727        3.9595949286        0.2342685869
 H         -3.0740833799        3.5217857281        0.9294406604
 C          2.1286051372        1.8155386130        0.9602497896
 C          2.6209132085        2.4151622155       -0.2075868651
 C          2.9233701723        0.9636841988        1.7111895149
 C          3.9239976224        2.1103043842       -0.6082883624
 C          4.7163795549        1.2638374036        0.1397967950
 C          4.2178142704        0.6962130198        1.3039339671
 H          2.5056563347        0.5059969405        2.5930797472
 H          5.7220634150        1.0416751459       -0.1826636781
 H          4.8317674560        0.0288778152        1.8881431558
 H          4.3086417808        2.5610247627       -1.5117300264
 C          1.8301620956        3.3687563441       -0.9935736726
 O          0.8086418387        3.9084284597       -0.6505254145
 H          2.2819425268        3.5902827234       -1.9813840581
