  56
        -94.14985726
 C         -1.7635111521       -1.5569999497       -1.3439524601
 C         -0.6464832749       -2.5131007181       -1.7480968085
 C         -1.3670302727       -0.0925933763       -1.6076286479
 O         -0.3616411350        0.2450445047       -2.1948590533
 O         -0.5211763119       -0.2330305116        0.7358534049
 O         -3.0902552584        0.7924792395        2.4947773618
 N         -2.1043807154       -1.6797763577        0.0628461678
 C         -1.4074873459       -1.0261966424        1.0057328175
 C         -1.8613843215       -1.2894070727        2.4364984835
 C         -2.0513425741        0.0817053409        3.1281586664
 N         -3.0770102648       -2.0930208994        2.4355919270
 N         -2.3327893646        0.7765639062       -1.2251700880
 C         -2.0856994596        2.2089100915       -1.1867266628
 C         -3.4043965677        2.9618964864       -1.1182169174
 C         -1.2149276945        2.4901413422        0.0502622625
 O         -1.7011931609        2.7630446990        1.1357542176
 N          0.1010834449        2.4056278039       -0.1863639045
 O          1.8361983214        0.6466194059        2.2839713848
 O          1.9933232047        0.4949421869        0.0229410867
 C          1.0699297324        2.4603651300        0.8860963214
 C          1.6446555732        1.0713792636        1.1793372506
 C          2.2168126178        3.4067600192        0.5271925188
 H         -2.6683753797       -1.7647038066       -1.9279204350
 H         -0.3354331125       -2.3000516612       -2.7666332396
 H         -0.9829380650       -3.5445410311       -1.6786446079
 H          0.2085518831       -2.3708632184       -1.0934923530
 H         -2.7091844079        1.5695141890        2.0498823544
 H         -2.7391245399       -2.3974395151        0.3874397061
 H         -1.0579237886       -1.8349585146        2.9424235813
 H         -1.1061682353        0.6271137547        3.1009548870
 H         -2.3377566176       -0.0849478989        4.1748745558
 H         -3.8578363758       -1.4624325525        2.2621773999
 H         -3.2261661629       -2.4926622517        3.3561443135
 H         -3.0489862086        0.4495019392       -0.5922019309
 H         -1.5292349230        2.4634235798       -2.0943759478
 H         -3.2217265676        4.0309488133       -1.1807143801
 H         -3.8997194607        2.7555149208       -0.1718225613
 H         -4.0518792896        2.6634714665       -1.9384705362
 H          0.3985849681        1.9484424642       -1.0410753550
 H          0.5481685564        2.8097024154        1.7826737836
 H          2.7218561453        3.0605858703       -0.3715914452
 H          2.9342511703        3.4461563255        1.3425066055
 H          1.8275455967        4.4062474107        0.3511893635
 C          2.3452918550       -0.8225869187       -0.1337805935
 C          2.7470367372       -1.2018377626       -1.4275902653
 C          2.2914857495       -1.7735050039        0.8765540491
 C          3.0978933665       -2.5300053331       -1.6674856168
 C          3.0449570395       -3.4715981686       -0.6603051058
 C          2.6356987660       -3.0878719239        0.6075140295
 H          1.9763752229       -1.4861790512        1.8654543413
 H          3.3168951195       -4.4973300480       -0.8568215064
 H          2.5845496404       -3.8167661195        1.4026946236
 H          3.4048896189       -2.7929689553       -2.6686952008
 C          2.7924010981       -0.2409779148       -2.5386291069
 O          3.1732771456       -0.5042611951       -3.6512806683
 H          2.4461569936        0.7719854750       -2.2774799677
