  56
        -94.15297540
 C         -2.1168350194        0.1270016231       -1.8244696316
 C         -1.8732701052       -0.9760064598       -2.8412564150
 C         -0.8521478148        0.9732334230       -1.5981583128
 O          0.2425747821        0.6664402632       -2.0315936426
 O         -3.6898435844        1.3770368970        0.1325009130
 O         -1.3230808906       -1.1112709475        1.9347214283
 N         -2.5434369604       -0.4439904025       -0.5565311589
 C         -3.3024022026        0.2331650926        0.3254280214
 C         -3.6851371883       -0.5567148062        1.5776568296
 C         -2.4809443531       -0.5993242224        2.5471728010
 N         -4.8207347086        0.0142520472        2.2732019615
 N         -1.0957110810        2.0776542817       -0.8703484047
 C         -0.0099544819        2.8233084181       -0.2651592762
 C         -0.5147279140        4.1684885376        0.2383009403
 C          0.5228140958        1.9805809836        0.9031075504
 O         -0.2409828961        1.4503346270        1.6938829350
 N          1.8587683985        1.8991524161        0.9959169854
 O          3.5212219429       -1.1511437007        1.1661245193
 O          1.3849370185       -0.6953257468        0.6091609321
 C          2.4987925899        0.9421751062        1.8771470497
 C          2.5795129272       -0.4133047423        1.1663894626
 C          3.8826182000        1.4180468501        2.2856865337
 H         -2.9232900253        0.7936103558       -2.1535553188
 H         -1.0365858644       -1.5940235009       -2.5243409334
 H         -1.6244973126       -0.5364442288       -3.8028249645
 H         -2.7604942173       -1.5944610330       -2.9496332415
 H         -0.7354634672       -0.3604857009        1.7478243385
 H         -2.0672635970       -1.2759225525       -0.2353896521
 H         -3.9331063225       -1.5830714676        1.2841745657
 H         -2.7487910806       -1.2524849760        3.3835890723
 H         -2.3048143126        0.4081256596        2.9322401806
 H         -5.6387641754       -0.0051962124        1.6724572715
 H         -4.6278447328        0.9928227675        2.4690121284
 H         -2.0187740804        2.1850030114       -0.4556604985
 H          0.7720234127        2.9475290815       -1.0215108843
 H         -0.9524644219        4.7341627188       -0.5802265105
 H          0.3041484446        4.7399746297        0.6673631218
 H         -1.2715338310        4.0103588997        1.0035478185
 H          2.4184882503        2.1577042332        0.1945283977
 H          1.8415833524        0.8182169706        2.7473785595
 H          4.3485312760        0.6761147662        2.9270848740
 H          3.8162885115        2.3639630931        2.8159341145
 H          4.5019337304        1.5412648131        1.4007633934
 C          1.3124169376       -1.6719886551       -0.3593376268
 C          2.0252390296       -1.5361453120       -1.5586064689
 C          0.4545424818       -2.7415344988       -0.1550642954
 C          1.8717778640       -2.5249480829       -2.5318245450
 C          1.0422406044       -3.6076791924       -2.3199370278
 C          0.3246355600       -3.7092742084       -1.1359309860
 H         -0.0992408398       -2.7886129781        0.7704187813
 H          0.9399111546       -4.3672921790       -3.0798495951
 H         -0.3383258440       -4.5461832683       -0.9756050533
 H          2.4127606708       -2.4282081101       -3.4616274218
 C          2.8463141627       -0.3593829131       -1.8526734019
 O          3.1503556449        0.5263061912       -1.0905139693
 H          3.1919395212       -0.3316885449       -2.9025864918
