  56
        -94.14981769
 C          2.0279116395       -2.1887797932       -0.1089230757
 C          2.9118171402       -3.4073039041       -0.3302250610
 C          0.5812786420       -2.5015190183       -0.5171781719
 O          0.2491436241       -2.5122523741       -1.6935843240
 O          0.7832588549        0.2469072851       -0.2631439618
 O          2.2452289545        2.7812535015       -0.2921132637
 N          2.4684930354       -1.0850060055       -0.9382012210
 C          1.7285218304        0.0241542592       -1.0112217874
 C          2.2070619594        1.0583584749       -2.0189056651
 C          3.0305299648        2.0851920467       -1.2171108487
 N          3.0306401664        0.4256508268       -3.0390698571
 N         -0.2546598401       -2.7796208511        0.4884413687
 C         -1.6564473552       -3.0980954553        0.2707055783
 C         -2.1815710381       -3.9251474158        1.4331031896
 C         -2.4970097245       -1.8113592054        0.0933028841
 O         -3.3912035968       -1.5008646183        0.8511567368
 N         -2.1507048697       -1.1054300756       -0.9984065655
 O         -1.1624448507        2.0187116524       -1.5353432087
 O         -1.7956505075        1.2917094564        0.5094431679
 C         -2.7411988904        0.1795547474       -1.3155478885
 C         -1.7976073758        1.2886799520       -0.8288557345
 C         -3.0003219770        0.2990334987       -2.8094443248
 H          2.0512003529       -1.8698202732        0.9400654207
 H          2.8316509195       -3.7390706995       -1.3633888246
 H          2.5976239432       -4.2179460075        0.3217653627
 H          3.9487251280       -3.1638586731       -0.1113564344
 H          1.5665220737        2.1763336622        0.0414320936
 H          3.1673404118       -1.2250494924       -1.6546594152
 H          1.3150115426        1.5781187027       -2.4071589574
 H          3.4587764994        2.8303834200       -1.8958152862
 H          3.8576237526        1.5585543255       -0.7141299935
 H          3.4906152299        1.1324856778       -3.6029277573
 H          2.4440019679       -0.1246878542       -3.6590292559
 H          0.0333407222       -2.5920656446        1.4401940337
 H         -1.7124477723       -3.6611982088       -0.6694951731
 H         -3.2212845621       -4.1843000920        1.2567473787
 H         -2.1309080130       -3.3460089601        2.3521254946
 H         -1.5986259707       -4.8355472567        1.5468536693
 H         -1.3601536223       -1.4124518397       -1.5558078546
 H         -3.6676903425        0.2445626910       -0.7318374386
 H         -3.4699644870        1.2530976288       -3.0310827449
 H         -3.6506267934       -0.5057666060       -3.1408974039
 H         -2.0593710530        0.2451886978       -3.3515911457
 C         -0.8704845941        2.0309788533        1.2232364768
 C         -0.0595515593        1.3389160119        2.1373776129
 C         -0.7267142042        3.3968360991        1.0525346113
 C          0.8927339264        2.0466850020        2.8672767060
 C          1.0222847501        3.4130718813        2.7089860546
 C          0.2157081755        4.0831590423        1.8029052163
 H         -1.3401489396        3.9140450233        0.3319510418
 H          1.7580202827        3.9563336453        3.2812740882
 H          0.3242389818        5.1480531788        1.6687995812
 H          1.5177850319        1.4999244226        3.5574177273
 C         -0.1968894522       -0.1130246937        2.2397662627
 O          0.6303262088       -0.8808256843        2.6790968845
 H         -1.1641571572       -0.4818172677        1.8634787893
