  56
        -94.14974954
 C          2.1625206214        0.5317566483       -1.9034919990
 C          1.8880196010        0.5376902430       -3.3990491222
 C          2.1648563988       -0.9058471478       -1.3595129005
 O          1.9541144454       -1.8754774862       -2.0731928470
 O          2.4070756161        1.8032832204        0.5917661924
 O          1.6405818285        3.8876504708        2.1838949307
 N          1.1668172950        1.3467208491       -1.2320368417
 C          1.3874267446        1.9709513094       -0.0773769760
 C          0.3004146036        2.9490923856        0.3600305099
 C          0.9741642148        4.1905621847        0.9971564541
 N         -0.5796398313        3.2622413861       -0.7526278614
 N          2.4264401761       -0.9862808189       -0.0508217786
 C          2.4797393501       -2.2410628855        0.6859778173
 C          3.2559316023       -2.0455928704        1.9763963303
 C          1.0376389179       -2.7177535047        0.9663167072
 O          0.5454352560       -2.7592759781        2.0724825074
 N          0.4050620280       -3.0865846971       -0.1663518142
 O         -2.8307607961       -1.7737177483       -0.7924571719
 O         -1.1118533363       -1.0291190574        0.4523084227
 C         -1.0203775835       -3.2896386037       -0.2249396584
 C         -1.7693697106       -1.9559600997       -0.2557463137
 C         -1.4011537934       -4.1537425854       -1.4173128647
 H          3.1453947635        0.9683233487       -1.6785691298
 H          2.5994798345       -0.1075391598       -3.9058738167
 H          1.9688544504        1.5456503317       -3.7972530820
 H          0.8866038937        0.1568854370       -3.5835641019
 H          2.2477170564        3.1542348783        1.9806563008
 H          0.2370086423        1.3788498755       -1.6410189581
 H         -0.2921223779        2.4561235192        1.1397216723
 H          0.2060315851        4.9303422843        1.2472309057
 H          1.6611598907        4.6393710652        0.2593034816
 H         -0.0767041996        3.8069646931       -1.4471652024
 H         -1.3595157044        3.8239432080       -0.4295550884
 H          2.5807155768       -0.1283671413        0.4718189163
 H          2.9641138321       -2.9867099248        0.0421422541
 H          4.2574440860       -1.6785506783        1.7674305096
 H          3.3243337262       -2.9895127449        2.5093831651
 H          2.7362316288       -1.3338546594        2.6131085308
 H          0.8783900331       -2.9164082142       -1.0541806092
 H         -1.3242778686       -3.7656232119        0.7200722738
 H         -2.4823421173       -4.2319419135       -1.4838264483
 H         -0.9723130341       -5.1460054134       -1.3120988787
 H         -1.0285800453       -3.7015595104       -2.3335672949
 C         -1.7848669498        0.1206062062        0.8276241164
 C         -2.5388363935        0.8671242715       -0.0779491017
 C         -1.7435818274        0.4603076618        2.1731867925
 C         -3.2870513903        1.9394311283        0.4013932409
 C         -3.2344623548        2.2912615497        1.7365073747
 C         -2.4515859481        1.5609439509        2.6198657592
 H         -1.1561047686       -0.1499468661        2.8411944030
 H         -3.8071629883        3.1332124072        2.0946183682
 H         -2.4065876906        1.8384533923        3.6614821325
 H         -3.8903371239        2.5057318062       -0.2922498684
 C         -2.5066355259        0.5621353309       -1.5233459801
 O         -1.4938856287        0.4103871280       -2.1602681114
 H         -3.4974904693        0.5484903271       -2.0088602907
