  56
        -94.14974807
 C          2.1541578664        0.5293590797       -1.9125946873
 C          1.8673778448        0.5364321474       -3.4058610901
 C          2.1573883122       -0.9085117960       -1.3693362125
 O          1.9397584735       -1.8772676678       -2.0822012594
 O          2.4197873575        1.7979752444        0.5826002737
 O          1.6656013552        3.8779096314        2.1863796409
 N          1.1654390389        1.3459751124       -1.2328149769
 C          1.3953323391        1.9677346277       -0.0786444845
 C          0.3120975346        2.9455335295        0.3689699243
 C          0.9907772282        4.1846627055        1.0053729990
 N         -0.5751979670        3.2626283950       -0.7368373495
 N          2.4272343436       -0.9903062617       -0.0624214813
 C          2.4804916847       -2.2452836203        0.6740744012
 C          3.2635050666       -2.0520858703        1.9607009162
 C          1.0383569725       -2.7179566965        0.9615263643
 O          0.5514414118       -2.7579109108        2.0700736986
 N          0.3995483619       -3.0853208210       -0.1680449178
 O         -2.8344604583       -1.7684413171       -0.7891957357
 O         -1.1153794205       -1.0262753684        0.4568396790
 C         -1.0263509097       -3.2867824739       -0.2202844925
 C         -1.7736867734       -1.9521892563       -0.2517399128
 C         -1.4126152286       -4.1535893671       -1.4089321347
 H          3.1397759899        0.9636465796       -1.6954001728
 H          1.9478773297        1.5442218815       -3.8045474065
 H          0.8632823390        0.1586913021       -3.5820224898
 H          2.5726381444       -0.1108645837       -3.9186917945
 H          2.2712255207        3.1451050688        1.9765629350
 H          0.2327985043        1.3806760037       -1.6351275469
 H         -0.2755913408        2.4503392781        1.1509876457
 H          0.2246375434        4.9238231382        1.2633109390
 H          1.6725826666        4.6357050307        0.2640643897
 H         -0.0765361771        3.8092704610       -1.4329541586
 H         -1.3526030170        3.8237313966       -0.4068080188
 H          2.5876360394       -0.1330928871        0.4595386185
 H          2.9595887582       -2.9924576123        0.0280562347
 H          4.2657249174       -1.6897692910        1.7467952370
 H          3.3300738306       -2.9958602173        2.4942244325
 H          2.7499556535       -1.3374392544        2.5991775747
 H          0.8691102004       -2.9160248019       -1.0581340437
 H         -1.3268824116       -3.7599336268        0.7272198030
 H         -2.4941198715       -4.2306603524       -1.4714457995
 H         -0.9845929617       -5.1460853522       -1.3025508607
 H         -1.0427115867       -3.7043312816       -2.3277063947
 C         -1.7867968326        0.1244902059        0.8318443035
 C         -2.5412716364        0.8710799348       -0.0732323939
 C         -1.7433509669        0.4653611068        2.1770675065
 C         -3.2879745914        1.9443533184        0.4062695610
 C         -3.2333387374        2.2971745056        1.7410333278
 C         -2.4497974769        1.5669535118        2.6238562202
 H         -1.1553162794       -0.1447261591        2.8447535024
 H         -3.8048993991        3.1398758192        2.0992355322
 H         -2.4029805334        1.8453217839        3.6651730883
 H         -3.8916233455        2.5106883219       -0.2870540067
 C         -2.5108500565        0.5655901500       -1.5186038123
 O         -1.4986190986        0.4147534342       -2.1566190561
 H         -3.5021992740        0.5516022044       -2.0031005065
