  56
        -94.14968048
 C         -2.2663929802        1.4369419874       -1.0058721409
 C         -3.3017146030        0.7812300630       -1.9018989524
 C         -0.8681568774        1.4482425300       -1.6497055158
 O         -0.5768096029        0.7479093224       -2.6010678813
 O         -1.4903992090        2.4808485881        1.4708061591
 O         -2.6757375277        1.8789309182        4.0177490519
 N         -2.1333127356        0.7062184863        0.2427289403
 C         -1.7023221633        1.2792179287        1.3746648133
 C         -1.5386879342        0.3023163478        2.5343803941
 C         -1.5297124046        1.0786294660        3.8669154023
 N         -2.5723317065       -0.7229424655        2.4456521172
 N         -0.0154931139        2.2846285490       -1.0266522993
 C          1.4169063655        2.0975074197       -1.1197450338
 C          2.1456695510        3.4247247415       -0.9388393551
 C          1.8181543591        1.1027901443       -0.0283458349
 O          1.0562393141        0.8029652661        0.8760931683
 N          3.0573862966        0.5817025761       -0.1012861948
 O          1.6955910391       -1.8217643700        2.0156766582
 O          1.6481370880       -1.6173355076       -0.2479502862
 C          3.3657084358       -0.4961446708        0.8292381986
 C          2.1092982187       -1.3684644057        0.9865132933
 C          4.5239441517       -1.3343811863        0.3080653037
 H         -2.5535319751        2.4639747659       -0.7513505127
 H         -3.4400802365        1.3776456655       -2.7991932788
 H         -4.2512143747        0.6936904517       -1.3805166106
 H         -2.9566438643       -0.2066898468       -2.1963959372
 H         -2.6181513032        2.5698044383        3.3433597210
 H         -2.2460974796       -0.2976281083        0.2388601765
 H         -0.5603536502       -0.1726693529        2.4018565836
 H         -0.6173933994        1.6844741718        3.9166786096
 H         -1.5327548878        0.3743432664        4.7034550719
 H         -3.4603719258       -0.3082816625        2.7186019147
 H         -2.3731060297       -1.4602046042        3.1141793450
 H         -0.3367780450        2.6975324102       -0.1533545693
 H          1.6324137209        1.6533570625       -2.0978581019
 H          1.8367249790        4.1240125105       -1.7114031323
 H          3.2204099531        3.2791854866       -1.0015139740
 H          1.9040620007        3.8484009693        0.0335226647
 H          3.5325674828        0.5748262969       -0.9912485169
 H          3.5947506195       -0.0699437120        1.8133516159
 H          5.4177982518       -0.7212886333        0.2196539276
 H          4.2704820521       -1.7427014808       -0.6678570651
 H          4.7283379932       -2.1532058634        0.9928617412
 C          0.3940397772       -2.0452899911       -0.5830448804
 C          0.0565056155       -1.8804551458       -1.9406067430
 C         -0.5196860122       -2.5874981740        0.3092589941
 C         -1.1982662287       -2.3065964202       -2.3704219124
 C         -2.1076736634       -2.8474151698       -1.4818518565
 C         -1.7701727270       -2.9738544152       -0.1427215986
 H         -0.2549626338       -2.6936699861        1.3479410633
 H         -3.0802898224       -3.1647452166       -1.8268168046
 H         -2.4821099529       -3.3783443052        0.5600263510
 H         -1.4560851540       -2.1844770825       -3.4119149144
 C          0.9541991410       -1.2163958199       -2.8982175388
 O          2.0360427700       -0.7347925292       -2.6609419854
 H          0.5464915411       -1.2063343152       -3.9241749397
