  56
        -94.14967597
 C         -0.1570685208       -3.1444036068       -1.7964008566
 C          0.0704755676       -3.5744437028       -3.2357303648
 C         -1.5099032037       -2.4225523096       -1.6429843046
 O         -2.1299180736       -1.9659550888       -2.5896690983
 O          0.5684828204       -2.4095425654        0.8525091822
 O          1.9978180542       -0.6277360757        2.4401816778
 N          0.9100592325       -2.2542333537       -1.3753468483
 C          1.1883627324       -1.9569670966       -0.1055552122
 C          2.3628725114       -0.9947541396        0.0516504092
 C          2.9235298035       -1.0605220636        1.4872883854
 N          3.3451707616       -1.2488162464       -0.9924275504
 N         -1.9303161755       -2.3669209427       -0.3720642991
 C         -3.1219696635       -1.6319234955        0.0264988952
 C         -3.5669188128       -2.0799486259        1.4074478749
 C         -2.7439523637       -0.1432617978        0.0123896762
 O         -2.4161673397        0.4743067167        1.0038736752
 N         -2.7681360130        0.4019200799       -1.2248724196
 O          0.0551311670        0.6855034282       -1.3355613229
 O         -0.3582585340        2.5056917346       -0.0793185194
 C         -2.1345417740        1.6933521595       -1.4175868193
 C         -0.6815743753        1.5598737179       -0.9584796401
 C         -2.1910356626        2.0941615421       -2.8844936283
 H         -0.1534892887       -4.0094962731       -1.1208881111
 H         -0.0235190069       -2.7131908464       -3.8925063202
 H         -0.6800701954       -4.3045116114       -3.5252764327
 H          1.0580494368       -4.0136776262       -3.3497804327
 H          1.2185334289       -1.1992889299        2.3488288106
 H          1.4223428232       -1.7467899575       -2.0826113364
 H          1.9522359795        0.0083749152       -0.1123920371
 H          3.7891417115       -0.3947938852        1.5708377572
 H          3.2521510714       -2.0918165293        1.6968047491
 H          4.0464429267       -0.5164406588       -0.9928933738
 H          3.8211959083       -2.1281504499       -0.8128354020
 H         -1.2555738458       -2.5784000266        0.3626249791
 H         -3.8948861435       -1.8178438198       -0.7276697935
 H         -3.7085472311       -3.1572117062        1.4292749720
 H         -4.5006766650       -1.5912207463        1.6708465153
 H         -2.8148071042       -1.7975269322        2.1403084467
 H         -2.7811224566       -0.2351612394       -2.0193510988
 H         -2.6318448797        2.4301456778       -0.7775917930
 H         -1.6474409507        1.3668558666       -3.4839388234
 H         -1.7455042676        3.0755183292       -3.0257252368
 H         -3.2252448916        2.1256168671       -3.2168079042
 C          0.9195486727        2.5090728389        0.4778454776
 C          1.0510910905        2.4337728420        1.8674804267
 C          2.0366135671        2.6347406930       -0.3330100921
 C          2.3279892642        2.4971712243        2.4214113420
 C          3.4439767128        2.6154524589        1.6163614451
 C          3.2974172041        2.6828684720        0.2399824167
 H          1.9158166978        2.6905936380       -1.4044837358
 H          4.4284598778        2.6551174507        2.0575330919
 H          4.1646707136        2.7770003268       -0.3969131530
 H          2.4126321941        2.4315335626        3.4948494230
 C         -0.1201940332        2.2611425534        2.7519581024
 O         -0.0905356527        2.4472085531        3.9410600438
 H         -1.0378061761        1.9345857629        2.2371435087
