  56
        -94.15297130
 C         -2.1356257675        0.0885782456       -1.8332009690
 C         -1.8857991743       -1.0210979932       -2.8412001709
 C         -0.8737396591        0.9397305841       -1.6091846772
 O          0.2237920178        0.6298749864       -2.0331733675
 O         -3.7054136132        1.3482837954        0.1242751422
 O         -1.3367009783       -1.1602950890        1.9067469945
 N         -2.5623771219       -0.4762208479       -0.5625532956
 C         -3.3177863861        0.2048688685        0.3193290424
 C         -3.6994301642       -0.5832900909        1.5733609380
 C         -2.4883464659       -0.6510627472        2.5331221663
 N         -4.8195919010        0.0020271495        2.2819466487
 N         -1.1229986921        2.0521019632       -0.8949758022
 C         -0.0402152110        2.7993045384       -0.2868856405
 C         -0.5423941331        4.1530903262        0.1959663358
 C          0.4780921067        1.9673579452        0.8954504293
 O         -0.2950977532        1.4157329123        1.6618818125
 N          1.8125989283        1.9203653572        1.0290509178
 O          3.5364612215       -1.0897855083        1.1982281353
 O          1.3965220587       -0.6836712410        0.6169577153
 C          2.4486217320        0.9677811144        1.9182535226
 C          2.5752638776       -0.3775383939        1.1943382219
 C          3.8106232707        1.4673925101        2.3691064248
 H         -2.9435173044        0.7502889571       -2.1684876329
 H         -2.7695265463       -1.6454455532       -2.9443806250
 H         -1.0454162116       -1.6315140706       -2.5189516929
 H         -1.6394495187       -0.5882183125       -3.8064013419
 H         -0.7560939185       -0.4064068651        1.7104941385
 H         -2.0865775752       -1.3072520093       -0.2381286993
 H         -3.9675851826       -1.6036950919        1.2764065894
 H         -2.7541649965       -1.3162677885        3.3604097255
 H         -2.3027405078        0.3486721108        2.9336163045
 H         -5.6414230551        0.0041414083        1.6860567227
 H         -4.6072587083        0.9748361435        2.4860822385
 H         -2.0469838570        2.1580355924       -0.4814182177
 H          0.7501016743        2.9106037599       -1.0366130230
 H         -1.3120558797        4.0084375952        0.9509771180
 H         -0.9636014680        4.7135786097       -0.6347138056
 H          0.2742011481        4.7229202175        0.6315450151
 H          2.3883832208        2.1980519423        0.2456430199
 H          1.7707693381        0.8210964286        2.7688343365
 H          3.7103892295        2.4071501728        2.9049628434
 H          4.4520203784        1.6107308923        1.5031450534
 H          4.2733915386        0.7295131474        3.0174244397
 C          1.3589995453       -1.6501867201       -0.3635628198
 C          2.0907440926       -1.4906450909       -1.5485521488
 C          0.5149920689       -2.7353747986       -0.1858948789
 C          1.9713615715       -2.4723249776       -2.5337561478
 C          1.1553491664       -3.5698362199       -2.3482855178
 C          0.4178142323       -3.6945749272       -1.1788667793
 H         -0.0550986955       -2.8009178642        0.7285271698
 H          1.0787603416       -4.3229306468       -3.1176589814
 H         -0.2352727643       -4.5429614510       -1.0395158102
 H          2.5273380166       -2.3573501746       -3.4525806021
 C          2.8942817160       -0.2970575261       -1.8197528675
 O          3.1561025225        0.5966260287       -1.0509548599
 H          3.2688106216       -0.2618867681       -2.8595979039
