  56
        -94.14967464
 C         -0.2316152788       -3.1759316437        1.7528284956
 C         -0.4950932484       -4.6209296740        1.3642659604
 C         -1.5334403682       -2.3516310613        1.7272706876
 O         -2.5397705227       -2.7185932721        1.1425966851
 O          1.2936300234       -0.8032028034        2.0984270374
 O          2.8767228409        1.1208409244        0.8745337336
 N          0.7257945966       -2.5867295170        0.8339379705
 C          1.4062888709       -1.4646010180        1.0703786439
 C          2.3508601617       -1.0747449878       -0.0636814202
 C          3.4245192947       -0.0902836915        0.4442481004
 N          2.8833059648       -2.2768780271       -0.6893163434
 N         -1.4425666608       -1.2099869334        2.4223828127
 C         -2.5130162827       -0.2239686853        2.4515401221
 C         -2.3127048760        0.7208333028        3.6233541421
 C         -2.4618451209        0.5244884012        1.1110789542
 O         -1.9243563192        1.6021934831        0.9654311170
 N         -3.0388881533       -0.1586481979        0.0968724335
 O         -0.5753585731       -0.6886683382       -1.2218179487
 O         -0.8228099638        1.4399930877       -1.9080476196
 C         -2.7834392069        0.2808971906       -1.2625613089
 C         -1.2672921195        0.2658753072       -1.4661554173
 C         -3.4603958337       -0.6538836409       -2.2541212005
 H          0.1936759612       -3.1103439091        2.7625882901
 H          0.4377613988       -5.1758216034        1.3082738449
 H         -0.9971853981       -4.6534349387        0.4005248170
 H         -1.1438870743       -5.0878793788        2.0999351080
 H          2.2424284491        0.9033259765        1.5767745784
 H          0.8296970219       -2.9953974845       -0.0839090548
 H          1.7310453901       -0.5574646136       -0.8054263037
 H          4.1113181319        0.1529188412       -0.3735075179
 H          3.9985068582       -0.5726876721        1.2527272275
 H          3.5480817221       -2.7257806057       -0.0658559983
 H          3.3787597635       -2.0340070667       -1.5399776889
 H         -0.5128870212       -0.8858640535        2.6871751476
 H         -3.4617367198       -0.7670842466        2.5276859743
 H         -3.1530904772        1.4057198390        3.6925952907
 H         -1.4083906137        1.3045665944        3.4685155603
 H         -2.2295117782        0.1617146345        4.5515252499
 H         -3.2243418410       -1.1495850299        0.2410004973
 H         -3.1359368430        1.3121074857       -1.3724256858
 H         -3.3002091578       -0.3062291530       -3.2714551661
 H         -4.5286092915       -0.6868357810       -2.0570638712
 H         -3.0492478916       -1.6560180998       -2.1517311535
 C          0.5447651216        1.6226532263       -2.1062624286
 C          1.1916821840        2.6627606200       -1.4325251696
 C          1.2380532364        0.8167405012       -2.9955415571
 C          2.5458900617        2.8779100328       -1.6800664530
 C          3.2415484793        2.0730797332       -2.5606596833
 C          2.5873398380        1.0425167232       -3.2165037813
 H          0.7221774358        0.0179959248       -3.5071555125
 H          4.2924454681        2.2452970016       -2.7374558291
 H          3.1232638716        0.4090319157       -3.9080003149
 H          3.0315493766        3.6804851088       -1.1473837410
 C          0.4854366055        3.5128953074       -0.4517515200
 O          0.9223322381        4.5553972185       -0.0366879163
 H         -0.4835963875        3.1129616560       -0.1132733225
