  56
        -94.14967357
 C         -0.1176868873       -3.1580546559       -1.7691553986
 C          0.1142889394       -3.6154857128       -3.1992935048
 C         -1.4766063317       -2.4446423845       -1.6315847877
 O         -2.0956058430       -2.0061002644       -2.5874900949
 O          0.5976763476       -2.3680685816        0.8643388645
 O          2.0448014927       -0.5954005589        2.4344311769
 N          0.9418984470       -2.2513126711       -1.3651246562
 C          1.2170585130       -1.9296261418       -0.1007079844
 C          2.3869848662       -0.9594713072        0.0411669273
 C          2.9636993158       -1.0185054549        1.4709319648
 N          3.3604092975       -1.2105538879       -1.0118538078
 N         -1.9035025615       -2.3737875082       -0.3637227668
 C         -3.1096887686       -1.6535898594        0.0175860061
 C         -3.5628174809       -2.0995938783        1.3965937560
 C         -2.7577870921       -0.1583572979       -0.0022883918
 O         -2.4711846644        0.4758691763        0.9912497315
 N         -2.7570451959        0.3718012402       -1.2461189302
 O          0.0668437421        0.7006674590       -1.3561198273
 O         -0.3890721553        2.4974487770       -0.0811680782
 C         -2.1403965630        1.6707699945       -1.4423952864
 C         -0.6878819252        1.5581184478       -0.9757694837
 C         -2.1964661215        2.0636077336       -2.9113575693
 H         -0.1076670838       -4.0092270136       -1.0762097193
 H          1.1060374053       -4.0475103309       -3.3042723480
 H          0.0120308001       -2.7690064249       -3.8737767746
 H         -0.6290935402       -4.3586806927       -3.4735285248
 H          1.2677656041       -1.1711069162        2.3472234693
 H          1.4533665745       -1.7546140759       -2.0807794381
 H          1.9686337360        0.0407242935       -0.1214797719
 H          3.8235807696       -0.3441912840        1.5444664691
 H          3.3053941514       -2.0464504594        1.6766874188
 H          3.8464643893       -2.0844439637       -0.8323950170
 H          4.0547497771       -0.4717874633       -1.0243529811
 H         -1.2311563232       -2.5679120424        0.3776416050
 H         -3.8714833182       -1.8567095240       -0.7435213044
 H         -3.6913523891       -3.1783923746        1.4230491599
 H         -4.5051049274       -1.6209550750        1.6477731427
 H         -2.8220007616       -1.8037543231        2.1356212410
 H         -2.7481040983       -0.2737253852       -2.0338035371
 H         -2.6505083693        2.4029915093       -0.8073442522
 H         -3.2294798075        2.0771529422       -3.2485104062
 H         -1.6386127499        1.3421444877       -3.5047086437
 H         -1.7656976617        3.0511125471       -3.0553972607
 C          0.8840909938        2.5183172099        0.4863804098
 C          1.0070751810        2.4265147142        1.8758289969
 C          2.0042802547        2.6770836510       -0.3143165501
 C          2.2786664355        2.5068107749        2.4399223884
 C          3.3977438898        2.6587849976        1.6450108559
 C          3.2597023477        2.7425645506        0.2686422268
 H          1.8899191333        2.7453918105       -1.3857880612
 H          4.3780170636        2.7117772155        2.0940035510
 H          4.1293849501        2.8632502170       -0.3604062198
 H          2.3567279304        2.4270149799        3.5128759435
 C         -0.1663671811        2.2194221936        2.7500456922
 O         -0.1438767276        2.3775513020        3.9434368209
 H         -1.0784104983        1.8956943052        2.2237640954
