  56
        -94.14963239
 C         -2.6881554874       -2.5645550267       -0.8236107676
 C         -3.3190541811       -2.7419359614       -2.1939952393
 C         -3.1524733830       -1.2577845629       -0.1551169588
 O         -3.7867712414       -0.3960754673       -0.7481783202
 O         -0.7879384735       -3.1066336583        1.1966284483
 O          3.1677329512       -3.7803855360       -0.3834674293
 N         -1.2420581959       -2.5256223316       -0.9368622314
 C         -0.4100663949       -2.7680948937        0.0817895980
 C          1.0591311780       -2.5770425917       -0.2546505117
 C          1.7748932832       -3.9361746408       -0.2925439226
 N          1.2079027438       -1.9035183335       -1.5371035767
 N         -2.7669859346       -1.1645971221        1.1219350916
 C         -2.9459625926        0.0257807628        1.9375283048
 C         -2.6830566068       -0.3146358257        3.3941752476
 C         -1.9784285038        1.1125209567        1.4386544388
 O         -0.9450182872        1.4200026282        2.0010095370
 N         -2.3887675801        1.7061857599        0.3022052894
 O          0.1426909036        0.9323112997       -0.8003772140
 O          0.8156118452        2.9830916820       -0.1555413376
 C         -1.5052210726        2.6490290470       -0.3473686694
 C         -0.1016854750        2.0531830483       -0.4380089875
 C         -2.0086044585        2.9598003774       -1.7520379115
 H         -2.9439392999       -3.4009656327       -0.1606051737
 H         -2.9388353351       -3.6411178926       -2.6711100038
 H         -3.0961693430       -1.8793603243       -2.8172490822
 H         -4.3980897488       -2.8183218561       -2.0949231456
 H          3.4617851325       -3.2599270023        0.3749003533
 H         -0.8106863705       -2.1901294532       -1.7899423448
 H          1.4939292824       -2.0109376889        0.5878407103
 H          1.4747706672       -4.4864403672       -1.1872031772
 H          1.4955657032       -4.5122678189        0.5989857538
 H          2.1628932183       -2.0231246055       -1.8602315053
 H          1.0371976535       -0.9083741436       -1.4256500963
 H         -2.1493644825       -1.8890062802        1.4915807677
 H         -3.9713546666        0.3882392049        1.7903282298
 H         -3.3402618006       -1.1164270389        3.7198389105
 H         -2.8503783674        0.5608632575        4.0153806681
 H         -1.6483188249       -0.6269106904        3.5128865799
 H         -3.1116493796        1.2428533462       -0.2501800930
 H         -1.4389450780        3.5621371279        0.2578007477
 H         -2.0273011641        2.0485387819       -2.3458343146
 H         -1.3605758368        3.6862304264       -2.2357143261
 H         -3.0150279198        3.3663682799       -1.6974836181
 C          2.1670424121        2.7099289515       -0.3277380356
 C          2.8056632902        1.6139821224        0.2583003211
 C          2.8780105908        3.5893496067       -1.1323419818
 C          4.1603008993        1.4107514304       -0.0143011274
 C          4.8679952618        2.2853874195       -0.8124617713
 C          4.2266319663        3.3850133882       -1.3626631147
 H          2.3596628253        4.4289529243       -1.5690985909
 H          5.9161726702        2.1162967335       -1.0050878042
 H          4.7730247750        4.0800046490       -1.9817603946
 H          4.6383901487        0.5524943807        0.4341590693
 C          2.1267072029        0.6884053132        1.1838534687
 O          2.5498844252       -0.4147213843        1.4383957784
 H          1.2122919086        1.0732877887        1.6596932888
