  56
        -94.14962793
 C          1.3783711461       -2.6019955324       -0.4283809757
 C          2.7493950701       -2.4153471575        0.2159245756
 C          1.0896474846       -1.4606263018       -1.4235617858
 O          1.9123088821       -0.6138400390       -1.6998645000
 O         -0.0920680114       -0.4352801783        0.5194263241
 O         -2.7267133018       -2.6490540602        0.4810134081
 N          0.3292166735       -2.6391216337        0.5754443582
 C         -0.2761554506       -1.5268068825        1.0321619077
 C         -1.2458887870       -1.7282695943        2.1943342216
 C         -2.6719130174       -1.7976021878        1.6020687565
 N         -1.0225426326       -2.8993457904        3.0169193522
 N         -0.0988979065       -1.6052610525       -2.0504657974
 C         -0.7356217892       -0.5054212438       -2.7537841003
 C         -1.4476256199       -1.0128882611       -4.0020119893
 C         -1.7445459815        0.0964772390       -1.7632112271
 O         -2.6655069305       -0.5845874461       -1.3304334114
 N         -1.5361296624        1.3741141197       -1.4400330577
 O         -1.4701783686        1.6588185912        2.0179901609
 O          0.0282263713        2.2777576004        0.4256361594
 C         -2.1646302486        1.9900737461       -0.2893186189
 C         -1.1796858436        1.9266682757        0.8862170217
 C         -2.5184467679        3.4450522756       -0.5866030445
 H          1.3451849958       -3.5472607416       -0.9837968638
 H          3.5094268331       -2.3633912384       -0.5577318454
 H          2.9735728947       -3.2410559272        0.8878162646
 H          2.7630740995       -1.4805216676        0.7717242880
 H         -2.7955426770       -2.0824696395       -0.3063356438
 H          0.1423725877       -3.5184807863        1.0337049529
 H         -1.1792086219       -0.8369239875        2.8280711817
 H         -2.9987777812       -0.7887202023        1.3465973919
 H         -3.3305299129       -2.2051868638        2.3757552693
 H         -0.0516212234       -2.9953211497        3.2896947977
 H         -1.3376834230       -3.7375154180        2.5422784868
 H         -0.7536106743       -2.2794912844       -1.6742603962
 H          0.0460241408        0.2152810554       -3.0038903377
 H         -0.7515429592       -1.5536176075       -4.6377418249
 H         -1.8582977113       -0.1745379410       -4.5578424655
 H         -2.2625692624       -1.6753242269       -3.7175839390
 H         -0.6543175151        1.8065423514       -1.7184622268
 H         -3.0569824915        1.4118743919       -0.0314258611
 H         -2.9633855420        3.9076241747        0.2904360723
 H         -3.2268397790        3.4913716511       -1.4095718905
 H         -1.6200464343        3.9918335356       -0.8625571890
 C          1.2144363316        1.8871254832        0.9815562287
 C          2.2772294737        1.6959857847        0.0774792050
 C          1.3997963001        1.6740046898        2.3401674280
 C          3.5105509943        1.2835276970        0.5804333494
 C          3.6913821637        1.0624809455        1.9312706767
 C          2.6338015097        1.2566097667        2.8070759429
 H          0.5745012733        1.8137944616        3.0190419213
 H          4.6503791589        0.7352464468        2.3042332064
 H          2.7683602912        1.0827165184        3.8644623694
 H          4.3232749625        1.1204228524       -0.1116361934
 C          2.1327841072        1.8775818211       -1.3708442529
 O          1.1452041949        2.2399619431       -1.9686160064
 H          3.0721666076        1.6894902583       -1.9177570562
