  56
        -94.14961314
 C         -2.0740077730       -2.8501065789       -1.2313699831
 C         -2.6124720738       -3.0237105523       -2.6408553979
 C         -2.6450440694       -1.5962512479       -0.5559677289
 O         -3.1442670916       -0.6668199819       -1.1639627026
 O         -0.2725352451       -3.2292917457        0.9011387116
 O          1.2184436106       -0.9313157717       -2.2216926356
 N         -0.6280837515       -2.6904711472       -1.2671425675
 C          0.1465506705       -2.8373638254       -0.1816745692
 C          1.6268146417       -2.5076435038       -0.4045331732
 C          1.7747613302       -1.0725348461       -0.9311477511
 N          2.4090540096       -2.6338535569        0.8105285720
 N         -2.4973373048       -1.6007512191        0.7861569423
 C         -2.6516559554       -0.3430780743        1.4978465208
 C         -2.1627808054       -0.4872617220        2.9316913017
 C         -1.8065792980        0.6801033139        0.7418000973
 O         -0.6201469569        0.4773749020        0.5224447780
 N         -2.3922309788        1.8120196411        0.3387722682
 O          0.2187888359        1.6887510535       -1.7217804267
 O          0.5009710942        2.8131241510        0.2188716161
 C         -1.7099728081        2.6713690070       -0.6188068613
 C         -0.2415601238        2.2360412917       -0.7527406765
 C         -2.4106549491        2.5952422485       -1.9712516310
 H         -2.2943899916       -3.7244130803       -0.6077358180
 H         -3.6795511212       -3.2256443445       -2.6068543738
 H         -2.1077576739       -3.8473636064       -3.1384756278
 H         -2.4547644162       -2.1086515584       -3.2067748938
 H          0.9002928113       -0.0184465785       -2.3027255409
 H         -0.2256960403       -2.1644903760       -2.0400447662
 H          2.0269057124       -3.2044840583       -1.1523337579
 H          2.8455792874       -0.8293979611       -0.9524327749
 H          1.2806808116       -0.4012234920       -0.2261178788
 H          2.2219562740       -3.5400430435        1.2305074812
 H          2.0907546864       -1.9402019009        1.4839458974
 H         -1.8470375194       -2.2833291607        1.1809583494
 H         -3.7083629202       -0.0488317488        1.4650478264
 H         -2.7009665588       -1.2924952613        3.4247622796
 H         -2.3274425769        0.4363026941        3.4814661099
 H         -1.0989619300       -0.7161666190        2.9393732670
 H         -3.3980170459        1.8905686755        0.3631400140
 H         -1.7078788723        3.6960181815       -0.2241276967
 H         -2.5065720039        1.5526085647       -2.2656449355
 H         -1.8329388974        3.1221810590       -2.7249188153
 H         -3.4014310585        3.0383876309       -1.9068248756
 C          1.8293880095        2.4049885621        0.2954266843
 C          2.2082820753        1.5346374791        1.3234508077
 C          2.7443748505        2.8006717993       -0.6647577228
 C          3.5212556621        1.0685883366        1.3615039564
 C          4.4393445596        1.4785057998        0.4143639353
 C          4.0514572925        2.3460459873       -0.5943990378
 H          2.4264913103        3.4512573498       -1.4647275047
 H          5.4540232345        1.1135892992        0.4541332409
 H          4.7632359906        2.6606904175       -1.3423816403
 H          3.7965098683        0.3801182351        2.1458767944
 C          1.2358104320        1.0930199339        2.3348814043
 O          1.3146578163        0.0668463773        2.9603201633
 H          0.4097359555        1.8076159313        2.5042344309
