  56
        -94.14956679
 C         -2.1567199162        0.0920567391        0.8619327609
 C         -3.6041461346        0.1771653888        1.3610847665
 C         -1.5948473133        1.5020106086        0.6864491314
 O         -1.6205654643        2.0675260148       -0.3935332597
 O         -1.4645129904       -2.6026864550        0.3157096869
 O         -2.5040098437       -4.4608062408       -1.4674497573
 N         -2.0859413575       -0.5590273650       -0.4206990886
 C         -1.6959407093       -1.8206126231       -0.5988318593
 C         -1.6297379448       -2.2671179155       -2.0573115930
 C         -2.7451444585       -3.3190149962       -2.2346500832
 N         -1.8070440060       -1.1434672525       -2.9538288636
 N         -1.1281464350        2.0766777424        1.8054634954
 C         -0.5133861939        3.3988355164        1.8049758812
 C         -0.5489823101        3.9955383681        3.2005464860
 C          0.9355462456        3.2228541960        1.3006163408
 O          1.8928210992        3.1993812123        2.0432082913
 N          1.0023312304        3.0702916049       -0.0376674815
 O          3.3491736181        0.4501592273       -0.7856412087
 O          1.3691498328        0.5669853368        0.2819329904
 C          2.2049061270        2.5750140733       -0.6638997589
 C          2.3984950408        1.0793404193       -0.4166492456
 C          2.1735482489        2.8233737133       -2.1679788256
 H         -1.5507357820       -0.4921426438        1.5641483707
 H         -3.6465588989        0.6737301343        2.3270414333
 H         -4.0130256972       -0.8249138877        1.4599479106
 H         -4.2072990629        0.7359173941        0.6493941610
 H         -2.1989522046       -4.1666399993       -0.5905466993
 H         -2.2368635010        0.0166183662       -1.2423097464
 H         -0.6668545298       -2.7965025960       -2.1905505981
 H         -2.7893595625       -3.6425229375       -3.2795047472
 H         -3.7102258796       -2.8565075812       -1.9741856875
 H         -1.9716794324       -1.4703212495       -3.8999168164
 H         -0.9584977840       -0.5806318775       -2.9690051298
 H         -1.0179272636        1.5290209104        2.6444680472
 H         -1.0721055747        4.0147341934        1.0925294685
 H          0.1095744921        3.4329430014        3.8584720957
 H         -1.5612215233        3.9846689303        3.5971150406
 H         -0.1924219381        5.0208653232        3.1679055909
 H          0.1340817579        2.9158545876       -0.5430090945
 H          3.0624798347        3.0817905663       -0.2034308772
 H          3.0932004359        2.4580836967       -2.6157454145
 H          2.0715803120        3.8863352125       -2.3683541504
 H          1.3354878023        2.2905861902       -2.6122422402
 C          1.3873089829       -0.7828320762        0.5914202780
 C          1.4954085626       -1.7628154627       -0.4017583187
 C          1.3092365520       -1.1374332323        1.9280801100
 C          1.5483942416       -3.1013831662       -0.0108166197
 C          1.4472636575       -3.4552009761        1.3183994217
 C          1.3184032619       -2.4730936079        2.2877338498
 H          1.2496851490       -0.3551733969        2.6698814490
 H          1.4629228570       -4.4957131599        1.6016027532
 H          1.2354707489       -2.7463136392        3.3284855949
 H          1.6351708420       -3.8641802755       -0.7704323078
 C          1.4858432402       -1.4304199375       -1.8291458901
 O          0.9925783579       -0.4445257209       -2.3262550413
 H          1.9546536663       -2.2062296058       -2.4644911701
