  56
        -94.14956581
 C         -2.1592683262        0.0922644198        0.8592386365
 C         -3.6073033607        0.1759411451        1.3568264310
 C         -1.5980904644        1.5024698621        0.6835726812
 O         -1.6191814837        2.0658494784       -0.3975921169
 O         -1.4637598182       -2.6021276548        0.3145509953
 O         -2.4983871648       -4.4613079839       -1.4704662437
 N         -2.0863280798       -0.5592495587       -0.4230411937
 C         -1.6943366145       -1.8203142680       -0.6004144228
 C         -1.6250685476       -2.2666582024       -2.0587990728
 C         -2.7392142778       -3.3195779241       -2.2378850637
 N         -1.8017902862       -1.1430837595       -2.9555471672
 N         -1.1372709890        2.0799614505        1.8036147054
 C         -0.5226366241        3.4021335728        1.8022168158
 C         -0.5659945415        4.0039457572        3.1953718764
 C          0.9290140625        3.2243658531        1.3065500122
 O          1.8820869436        3.2025787318        2.0545585515
 N          1.0033744106        3.0685209662       -0.0308871459
 O          3.3515996049        0.4492206692       -0.7785521086
 O          1.3692591385        0.5640208969        0.2848790230
 C          2.2103139055        2.5751125474       -0.6500056410
 C          2.4006688031        1.0779535471       -0.4093878400
 C          2.1923085774        2.8323199820       -2.1528021866
 H         -1.5534259468       -0.4909110800        1.5624424834
 H         -3.6516363249        0.6742968799        2.3217662247
 H         -4.0145803925       -0.8266184001        1.4571999192
 H         -4.2107185925        0.7322182331        0.6434558499
 H         -2.1952091792       -4.1670152943       -0.5929573096
 H         -2.2355705379        0.0164254328       -1.2449563072
 H         -0.6616231853       -2.7953485535       -2.1905086331
 H         -2.7817958382       -3.6429360874       -3.2828489571
 H         -3.7048921761       -2.8576872668       -1.9786387474
 H         -1.9640650103       -1.4700642292       -3.9019905152
 H         -0.9539505015       -0.5791357179       -2.9690036372
 H         -1.0301122902        1.5342372624        2.6442674134
 H         -1.0773766856        4.0154567734        1.0844615049
 H          0.0880539649        3.4432543962        3.8593813996
 H         -1.5806234816        3.9952835673        3.5857705988
 H         -0.2084860492        5.0289031269        3.1611407836
 H          0.1382601077        2.9133005401       -0.5412311307
 H          3.0643312412        3.0785011503       -0.1792056002
 H          1.3572496408        2.3035372398       -2.6073725098
 H          3.1152290945        2.4681716544       -2.5947287183
 H          2.0937507154        3.8966130056       -2.3477546621
 C          1.3865158344       -0.7868562776        0.5902474641
 C          1.4978061487       -1.7637964944       -0.4055505966
 C          1.3047628070       -1.1455510337        1.9255740204
 C          1.5504915262       -3.1034964273       -0.0184863536
 C          1.4458256328       -3.4613833824        1.3093415234
 C          1.3135415902       -2.4822753200        2.2812183021
 H          1.2423602882       -0.3656011146        2.6695604870
 H          1.4615124700       -4.5027288280        1.5894545576
 H          1.2276132874       -2.7586797036        3.3208684328
 H          1.6401356408       -3.8639394351       -0.7801408725
 C          1.4914792143       -1.4273300079       -1.8320271277
 O          0.9982684489       -0.4406391212       -2.3275236993
 H          1.9626843701       -2.2008455942       -2.4684085570
