  56
        -94.14954089
 C          0.3337213350       -3.3955504524       -0.8883369649
 C          0.3098913629       -3.9600219156       -2.2984121288
 C         -1.0865947733       -3.0479588139       -0.4018201059
 O         -2.0458585620       -2.9585721669       -1.1507812637
 O          1.4810212078       -2.1244257289        1.3798001318
 O          4.5181162193        0.7123316396        0.6103355221
 N          1.1417176017       -2.1896113076       -0.8529761919
 C          1.6197331455       -1.6389059290        0.2635427819
 C          2.3857198512       -0.3360771764        0.0565120796
 C          3.8403745935       -0.5173531948        0.5160756467
 N          2.3624110555        0.0790935188       -1.3348458473
 N         -1.1482226627       -2.8628069687        0.9246027794
 C         -2.3401562594       -2.3491354708        1.5831181087
 C         -2.2285833118       -2.5586992640        3.0827850648
 C         -2.4184064057       -0.8580988726        1.2244550585
 O         -1.9431380812        0.0227066082        1.9141829917
 N         -3.0211898458       -0.6188328370        0.0393849582
 O         -0.5153659525        0.4207508058       -0.7928537790
 O         -1.2739393909        2.2993279630        0.1736527753
 C         -2.8902002057        0.7112463288       -0.5326331348
 C         -1.4258325043        1.1108940315       -0.4119723449
 C         -3.2990237172        0.7084258568       -1.9980346015
 H          0.7732783987       -4.1117013967       -0.1824000963
 H         -0.1994577288       -3.2652491259       -2.9616746720
 H         -0.2347299118       -4.8999307263       -2.3099029950
 H          1.3220086233       -4.1290904512       -2.6562707935
 H          4.1146583558        1.2311168259        1.3158978863
 H          1.2661831551       -1.6613950037       -1.7058975361
 H          1.9097940398        0.3971472634        0.7355593190
 H          4.3818216858       -1.1004594197       -0.2314062240
 H          3.8509499408       -1.0531924208        1.4724807704
 H          3.0722344225        0.7901196263       -1.4783360641
 H          1.4550418804        0.4807984868       -1.5509861417
 H         -0.2663475023       -2.7599634967        1.4298098319
 H         -3.2082215860       -2.8711799508        1.1653177585
 H         -1.4038906409       -1.9642711990        3.4686309497
 H         -2.0528230532       -3.6076473631        3.3057323478
 H         -3.1443847990       -2.2373001302        3.5711985171
 H         -3.1039158377       -1.3994506868       -0.6088318044
 H         -3.4890570923        1.4178681525        0.0525821995
 H         -2.7087821221       -0.0284762314       -2.5384147778
 H         -3.1174634741        1.6866617397       -2.4349762974
 H         -4.3531588517        0.4607845168       -2.0896706320
 C          0.0196469648        2.7369678819        0.3885713370
 C          0.8521506538        3.1010726126       -0.6793913006
 C          0.4807980014        2.7840184175        1.6955014186
 C          2.1575223755        3.5088034398       -0.3935447839
 C          2.6140562910        3.5662250387        0.9076308217
 C          1.7727868124        3.2077025713        1.9530137762
 H         -0.1823696669        2.4661373373        2.4847273977
 H          3.6256420099        3.8849690934        1.1084809622
 H          2.1283540208        3.2448267931        2.9718111032
 H          2.8093787503        3.7841109657       -1.2099590773
 C          0.3921182907        3.0697738389       -2.0747041962
 O         -0.7373381838        2.8932111045       -2.4529867493
 H          1.2135448723        3.2385415946       -2.8003544480
