  56
        -94.14951858
 C         -3.1133066468        1.1847988505       -0.3520338702
 C         -3.5472242445        1.8577344255       -1.6474255178
 C         -2.2795664992        2.1369450087        0.5144119760
 O         -1.9884750615        3.2743604765        0.1884136638
 O         -3.6380765446       -1.5662997986        0.2033725675
 O         -0.8129165788       -1.1482013382        1.9454185639
 N         -2.2636299157        0.0368463388       -0.6034376612
 C         -2.5523109665       -1.2168830150       -0.2116169079
 C         -1.3503810171       -2.1656045815       -0.2403047464
 C         -0.9584262729       -2.3587903505        1.2488564918
 N         -1.7179327484       -3.4032576206       -0.8980394777
 N         -1.8494736436        1.5754287404        1.6641268197
 C         -0.7626057418        2.1813169419        2.4195504388
 C         -0.6530461395        1.5544710618        3.7977643209
 C          0.4700684159        1.9268323994        1.5525818509
 O          1.0758557001        0.8625045266        1.5407787356
 N          0.7938542627        2.9207181015        0.7079281114
 O          0.3885434185        0.9340999401       -1.2776469064
 O          2.5460118994        0.4455077052       -0.9026317380
 C          1.7909967409        2.6317438356       -0.3119683757
 C          1.4804236409        1.2435287305       -0.8702807907
 C          1.7211072790        3.6657551394       -1.4263117410
 H         -3.9823398865        0.8235925881        0.2096258787
 H         -4.1401178064        2.7397687544       -1.4233391714
 H         -4.1354624760        1.1679179507       -2.2455756783
 H         -2.6704082475        2.1650434729       -2.2120025976
 H          0.0146435796       -0.6989998030        1.6974896210
 H         -1.3511175178        0.2445594138       -0.9855259538
 H         -0.5134564103       -1.7130673743       -0.7866604262
 H         -0.0457763006       -2.9662905251        1.3152442698
 H         -1.7751551630       -2.8888231309        1.7499774334
 H         -2.6570407102       -3.6583911851       -0.6038545544
 H         -1.0881870779       -4.1512829324       -0.6257859861
 H         -1.9594377721        0.5748358392        1.8051073908
 H         -0.9539105949        3.2576429638        2.4831624244
 H          0.1749877285        1.9992067803        4.3430944520
 H         -0.4816616910        0.4853552358        3.7055891549
 H         -1.5729423140        1.7190418071        4.3519007857
 H          0.0940709540        3.6277157316        0.5075525555
 H          2.7841066108        2.6061643015        0.1514850549
 H          0.7359153733        3.6411525964       -1.8875222538
 H          2.4728425267        3.4567801247       -2.1831510078
 H          1.8997313898        4.6580142098       -1.0202320397
 C          2.3391408846       -0.8560941695       -1.3653719078
 C          2.5092373286       -1.9316780368       -0.4875402836
 C          1.9519998567       -1.0721021865       -2.6777478298
 C          2.2897430518       -3.2243894410       -0.9663134128
 C          1.8982814830       -3.4415208168       -2.2717806996
 C          1.7304701003       -2.3636485787       -3.1269696290
 H          1.8154798072       -0.2290511565       -3.3377028952
 H          1.7180499859       -4.4445822603       -2.6254055737
 H          1.4190760153       -2.5240934158       -4.1473436400
 H          2.4287813346       -4.0436242352       -0.2762584632
 C          2.8816760021       -1.7323462012        0.9248056197
 O          3.0004525413       -2.6302427338        1.7194185223
 H          3.0310396274       -0.6798918568        1.2136291716
