  56
        -94.14951131
 C          0.1173868803       -2.3844981697       -1.9924107282
 C          0.0673017360       -2.0619107568       -3.4766034730
 C         -1.2825717870       -2.2817330195       -1.3589196799
 O         -2.2399946215       -1.8070088948       -1.9487947962
 O          1.4718966178       -2.7871163973        0.4466068781
 O          4.1392875551       -2.1734626094        1.1607422056
 N          1.0142305147       -1.4634416463       -1.3191537604
 C          1.5938055603       -1.7205674891       -0.1458783586
 C          2.4640328365       -0.5787385593        0.3780022420
 C          3.3421219215       -1.0831133564        1.5416802153
 N          3.2217059217       -0.0165416892       -0.7341960443
 N         -1.3371490677       -2.7710781004       -0.1141488215
 C         -2.5218644831       -2.6654484602        0.7253983834
 C         -2.4239338068       -3.6495672018        1.8776269722
 C         -2.6061046814       -1.2120497358        1.2302798822
 O         -2.2909773986       -0.8713742341        2.3498556151
 N         -3.0679876693       -0.3590327894        0.2850295393
 O         -0.5162500566        0.4697615194        0.1213099438
 O         -1.0356143508        2.5761320264        0.7073625400
 C         -2.8362982128        1.0571682067        0.4468840424
 C         -1.3344128423        1.3078271530        0.3882668479
 C         -3.5475821715        1.8537227955       -0.6398232592
 H          0.5013579715       -3.3974676363       -1.8180705953
 H          1.0661875007       -2.0853629623       -3.9044005271
 H         -0.3682563848       -1.0759495523       -3.6207271423
 H         -0.5592245515       -2.7857577738       -3.9897934471
 H          3.5319569699       -2.9060156333        0.9808819318
 H          1.0802314578       -0.5231523816       -1.6774324191
 H          1.7831263325        0.1930830267        0.7546592656
 H          2.6965135764       -1.3432044952        2.3898127715
 H          4.0290533898       -0.2899102485        1.8524343413
 H          3.9065651070       -0.7063722332       -1.0348276892
 H          3.7437828777        0.7914859761       -0.4084650862
 H         -0.4681772218       -3.0300376592        0.3450278395
 H         -3.3947998926       -2.8718698828        0.0948541666
 H         -2.2701904159       -4.6585521442        1.5039970647
 H         -3.3370162642       -3.6205610292        2.4654206264
 H         -1.5942178213       -3.3712166384        2.5227946744
 H         -3.0869510140       -0.7023013329       -0.6748474691
 H         -3.1829544997        1.3540380399        1.4443227536
 H         -4.6112076179        1.6325861333       -0.6175333703
 H         -3.1462932740        1.5883090361       -1.6149804775
 H         -3.3978373387        2.9173734351       -0.4795364090
 C          0.2887467398        2.9725133717        0.6718284331
 C          1.0794338546        2.8340015501       -0.4770917493
 C          0.8242205144        3.5130601536        1.8322370046
 C          2.4149473581        3.2371038906       -0.4167602336
 C          2.9432150876        3.7830283311        0.7353242736
 C          2.1436462927        3.9263992331        1.8600032399
 H          0.1929243644        3.5992149248        2.7026057297
 H          3.9756058915        4.0965453364        0.7624451008
 H          2.5512999005        4.3504012518        2.7646892904
 H          3.0263770307        3.1295519187       -1.3005875066
 C          0.5580651822        2.3121634868       -1.7490838293
 O         -0.5983680876        2.2393312541       -2.0746270237
 H          1.3659010979        1.9936442177       -2.4379927879
