  56
        -94.14951123
 C         -3.1909719633        1.1540166328        0.0102386504
 C         -3.7867237102        1.8863044618       -1.1848082703
 C         -2.2766779644        2.0760320699        0.8261417051
 O         -2.0382698914        3.2334642922        0.5288444381
 O         -3.6044746582       -1.6340074848        0.4615512665
 O         -0.6069172351       -1.2542991616        1.8957238674
 N         -2.3573602893        0.0416394889       -0.4029612321
 C         -2.5789729986       -1.2378912947       -0.0528294261
 C         -1.3731041788       -2.1561585497       -0.2725221026
 C         -0.8117625139       -2.4254749270        1.1488558305
 N         -1.7935180605       -3.3617377932       -0.9575750317
 N         -1.7108156408        1.4649489570        1.8883893570
 C         -0.5544556019        2.0533903091        2.5485950807
 C         -0.2813755165        1.3590680185        3.8705215520
 C          0.5760820637        1.8662814411        1.5375651254
 O          1.1944578406        0.8166947950        1.4084719139
 N          0.7844574940        2.9013649303        0.7072131944
 O          0.2268441160        0.9566133153       -1.2931168744
 O          2.4262743433        0.5314666229       -1.1408823031
 C          1.6648115085        2.6795899525       -0.4309689599
 C          1.3438405120        1.2916942859       -0.9858508960
 C          1.4213620636        3.7355127452       -1.4992727687
 H         -3.9816759988        0.7423157261        0.6477712052
 H         -4.4284190265        1.2158354640       -1.7490165922
 H         -2.9889064072        2.2467951752       -1.8294062777
 H         -4.3655884733        2.7392061567       -0.8424011245
 H          0.1767568222       -0.7706028998        1.5798098109
 H         -1.4952875439        0.2889866033       -0.8692869135
 H         -0.6103228095       -1.6545727638       -0.8805899621
 H          0.1123064029       -3.0151796325        1.0744549122
 H         -1.5574796231       -3.0017552612        1.7064495793
 H         -2.6882343428       -3.6555815654       -0.5745972780
 H         -1.1242248890       -4.1094844708       -0.8055498643
 H         -1.7913288960        0.4567531066        1.9884533471
 H         -0.7525047230        3.1211045072        2.6894323193
 H         -1.1365514610        1.4731784138        4.5308021704
 H          0.5943921455        1.7940623443        4.3444263252
 H         -0.1023761395        0.3004785973        3.7021260367
 H          0.0588040374        3.6057439349        0.6235631898
 H          2.7064086404        2.6857194696       -0.0890190025
 H          0.3901248097        3.6790734660       -1.8416447933
 H          2.0853030697        3.5768778325       -2.3451885631
 H          1.6069893689        4.7249083528       -1.0893543978
 C          2.2182994628       -0.7805514579       -1.5703858309
 C          2.5746025331       -1.8372605235       -0.7256545233
 C          1.6512698301       -1.0295792526       -2.8096474525
 C          2.3524473633       -3.1442895981       -1.1619730449
 C          1.7792263742       -3.3943605123       -2.3924166653
 C          1.4301320195       -2.3354893964       -3.2159434465
 H          1.3752676160       -0.2025314719       -3.4455695702
 H          1.5999314330       -4.4089314376       -2.7125421231
 H          0.9767580194       -2.5223854790       -4.1767824886
 H          2.6369711637       -3.9480053008       -0.4987137604
 C          3.1500882285       -1.6041944025        0.6114324078
 O          3.4562623054       -2.4856592915        1.3730959011
 H          3.2707332007       -0.5417903034        0.8763042312
