  56
        -94.14944870
 C         -1.3565964481       -2.1380574524       -2.3571331753
 C         -1.6972809791       -1.6618022549       -3.7590222834
 C         -2.4355250690       -1.7243951210       -1.3438205046
 O         -3.3208321579       -0.9253919540       -1.5997738466
 O          0.3982341448       -3.2004528669       -0.4671871362
 O          3.0617596486       -3.4037442108        0.2097809659
 N         -0.0938077072       -1.5565310361       -1.9255419415
 C          0.6742479050       -2.1164180030       -0.9797123315
 C          1.9544496108       -1.3748110997       -0.5983621313
 C          3.1323569173       -2.3682234931       -0.7227964076
 N          2.2591563343       -0.1632858149       -1.3228311863
 N         -2.2736703557       -2.3066837397       -0.1452346963
 C         -2.9674745688       -1.8372348305        1.0459641597
 C         -2.7409174929       -2.8042296900        2.1933930096
 C         -2.3703486978       -0.4528439530        1.3400107443
 O         -1.3893183845       -0.2804927970        2.0383319544
 N         -2.9914319356        0.5557547054        0.6944001119
 O         -0.4178490990        0.9891922854       -0.4596589382
 O         -0.1174764144        2.3272928823        1.3173658120
 C         -2.3528746473        1.8607339513        0.6894521696
 C         -0.8592057221        1.6486064921        0.4505150947
 C         -2.9433530887        2.7295533231       -0.4125951279
 H         -1.2352436745       -3.2269685930       -2.3254179902
 H         -2.6131019661       -2.1393283545       -4.0950905874
 H         -0.8937492504       -1.9049210462       -4.4492996995
 H         -1.8585128012       -0.5862839370       -3.7544836033
 H          2.1567783854       -3.7594731016        0.1734438707
 H          0.0377697284       -0.5759511200       -2.1329413698
 H          1.8560506156       -1.1139518847        0.4626046890
 H          4.0623113184       -1.8256545286       -0.5378119493
 H          3.1578043236       -2.7642521512       -1.7516942828
 H          1.5452088678        0.5385507501       -1.1618859822
 H          2.3379884035       -0.3409855007       -2.3178633938
 H         -1.4464648518       -2.8802619260        0.0042374968
 H         -4.0318214714       -1.7357257574        0.8068528546
 H         -1.6865276544       -2.8107409029        2.4601332727
 H         -3.0469940673       -3.8071988566        1.9081595772
 H         -3.3139561305       -2.4899912516        3.0613810102
 H         -3.5658232982        0.3142227239       -0.1100550293
 H         -2.4749769179        2.3270485561        1.6742378599
 H         -2.7801921958        2.2580518817       -1.3794707698
 H         -2.4765913746        3.7112087523       -0.4131965002
 H         -4.0117254199        2.8497921578       -0.2530162545
 C          1.2581982198        2.0734071195        1.3223249106
 C          2.1414986849        2.9009400069        0.6225349732
 C          1.7177491787        0.9831957517        2.0401013645
 C          3.5052010304        2.6033049422        0.6658038087
 C          3.9685049382        1.5197170800        1.3832250009
 C          3.0764839164        0.7116288231        2.0721508255
 H          0.9977174772        0.3602153082        2.5501275174
 H          5.0239211342        1.2973643238        1.4044936268
 H          3.4352094074       -0.1418679453        2.6269689388
 H          4.1773136829        3.2456320643        0.1172566990
 C          1.6624592680        4.0522724031       -0.1515326689
 O          2.3537636006        4.7658303809       -0.8314732774
 H          0.5728388402        4.2314668493       -0.0640229462
