  56
        -94.14943025
 C         -0.6679591932       -2.9374285174       -1.3034103465
 C         -1.1667927154       -2.9771360307       -2.7417867539
 C         -1.7921250076       -2.5389067586       -0.3389881104
 O         -2.9342576849       -2.2971245693       -0.6903543998
 O          2.0669525522       -3.3608248257       -0.6175804163
 O          1.1162849858       -1.2827043924        1.8668883503
 N          0.3775055075       -1.9484935345       -1.1263402648
 C          1.6204863423       -2.2348494334       -0.6993605535
 C          2.4082649066       -1.0136656353       -0.2187351548
 C          2.4052691137       -1.1227340859        1.3294497056
 N          3.7399839362       -1.0310829489       -0.7890730990
 N         -1.3855438233       -2.4352881063        0.9429246370
 C         -2.1972338978       -1.7285678681        1.9228765695
 C         -1.6990547109       -2.0024147374        3.3303146042
 C         -2.0643390312       -0.2596862603        1.5180034550
 O         -1.1174672735        0.4470205420        1.8340980531
 N         -3.0293161401        0.1839873973        0.6909429779
 O         -0.8902653970        0.6556664504       -1.0959310987
 O         -0.7966013648        2.6936446313       -0.1706517029
 C         -2.8329162416        1.4810457182        0.0666549911
 C         -1.3993921049        1.5402114416       -0.4548888239
 C         -3.8064872557        1.6642642075       -1.0895918370
 H         -0.2450305692       -3.9055410151       -1.0113578758
 H         -1.9842338040       -3.6871027168       -2.8281560278
 H         -0.3599085687       -3.2701813555       -3.4072027884
 H         -1.5305607077       -1.9938990018       -3.0298717905
 H          0.6252640163       -0.4433215882        1.8518513659
 H          0.0862391101       -0.9852546829       -1.2201859004
 H          1.9073749921       -0.0857713871       -0.5236863571
 H          2.9090069800       -0.2502479345        1.7645388564
 H          2.9550723551       -2.0275120490        1.6087971446
 H          4.0818023213       -1.9884584580       -0.7809443276
 H          4.3720768459       -0.4665413902       -0.2304002478
 H         -0.3922945134       -2.4640268705        1.1589211889
 H         -3.2361135139       -2.0516656019        1.7976229719
 H         -1.7690534934       -3.0649680594        3.5459833964
 H         -2.3002563687       -1.4530593868        4.0497578273
 H         -0.6626656752       -1.6898762769        3.4234403343
 H         -3.5774269461       -0.5083303287        0.1891714257
 H         -2.9572866799        2.2662457600        0.8214738956
 H         -3.6361721596        0.8939019965       -1.8389221331
 H         -3.6714917342        2.6413981529       -1.5463178386
 H         -4.8275776477        1.5861278275       -0.7253923838
 C          0.5034991539        2.8465165529       -0.6637106306
 C          1.5992318330        2.7064979541        0.1929345912
 C          0.6903281184        3.1103377976       -2.0100332447
 C          2.8828491216        2.8503229179       -0.3367566415
 C          3.0713726144        3.1187286807       -1.6770116066
 C          1.9734275672        3.2497548845       -2.5131285964
 H         -0.1696769831        3.1959883315       -2.6569754623
 H          4.0691927642        3.2180236085       -2.0745877806
 H          2.1121946750        3.4518277507       -3.5640133980
 H          3.7190596463        2.7365490045        0.3368145240
 C          1.4332749178        2.3826263496        1.6207732269
 O          2.3515023735        2.1185602165        2.3563135515
 H          0.3904576999        2.3790452610        1.9752365191
