  56
        -94.14939847
 C          1.1655143462       -2.0327110354        1.9498862290
 C          1.8908288051       -3.0987007576        2.7653901001
 C          0.1470901199       -2.6949178058        1.0106890593
 O          0.5263495167       -3.3061373301        0.0205247151
 O          1.4374632225        0.7844454936        1.6379952450
 O          2.9381221062        2.4608879191       -1.7320689299
 N          2.0887602510       -1.3132123926        1.0992083189
 C          2.0445843199        0.0132663932        0.9120705875
 C          2.8125919034        0.4554873828       -0.3353522462
 C          2.9513742466        1.9872114681       -0.4099582052
 N          4.0489971713       -0.3045301466       -0.4465521019
 N         -1.1402587847       -2.5551287029        1.3464800909
 C         -2.2193503183       -3.0313999164        0.4966685063
 C         -3.4523540523       -3.3157394742        1.3386618912
 C         -2.5334203482       -1.9809784766       -0.5891530314
 O         -3.6139958119       -1.4563186164       -0.7229947941
 N         -1.4693623579       -1.7300718064       -1.3816748823
 O          0.3758046165        0.8547341678       -2.3457566151
 O         -1.3237802462        1.1024628304       -0.8975483703
 C         -1.4872259984       -0.7033880052       -2.4000423416
 C         -0.6922284257        0.5061854165       -1.9040974430
 C         -0.9201237439       -1.2229678148       -3.7139929976
 H          0.6802642214       -1.2983984910        2.5976624562
 H          2.3377775941       -3.8294393277        2.0952321385
 H          1.1894300977       -3.6073604650        3.4214389402
 H          2.6729409489       -2.6422227986        3.3663160443
 H          2.1294425321        2.1376163028       -2.1553439977
 H          2.5928617848       -1.8621524713        0.4141105091
 H          2.1804420227        0.1507625547       -1.1833939733
 H          3.9069874291        2.3040429031        0.0182589995
 H          2.1427689302        2.4417961717        0.1783529403
 H          4.6850626038       -0.0430390523        0.3009024180
 H          4.5037488251       -0.0762087440       -1.3247057045
 H         -1.4000605260       -1.8231355082        1.9953988642
 H         -1.8598693789       -3.9411148333        0.0006241825
 H         -3.2256848837       -4.0440212543        2.1129259239
 H         -4.2468850902       -3.6990966208        0.7054945342
 H         -3.8009133732       -2.3934839273        1.7965201903
 H         -0.6090220488       -2.2462559441       -1.2409224183
 H         -2.5366674430       -0.3981333258       -2.5008544042
 H         -0.9660561651       -0.4490800140       -4.4750044755
 H         -1.4917048306       -2.0845937704       -4.0467733279
 H          0.1193630383       -1.5138956322       -3.5819267720
 C         -0.8196897299        2.2710996286       -0.3506831002
 C         -0.6791601341        2.3731024850        1.0398835290
 C         -0.4995601916        3.3433918908       -1.1710245762
 C         -0.2128797695        3.5759999349        1.5710802057
 C          0.1093143025        4.6412178885        0.7544752302
 C         -0.0329392372        4.5232192458       -0.6192408505
 H         -0.6151611174        3.2489021338       -2.2399381654
 H          0.4776019757        5.5605414451        1.1829344269
 H          0.2232448305        5.3474658725       -1.2665548870
 H         -0.0919076169        3.6548377760        2.6408627087
 C         -0.9461639139        1.2536399366        1.9502883129
 O         -1.4186859710        0.1808693888        1.6618546095
 H         -0.6995094480        1.4958937230        3.0001153034
