  56
        -94.14937728
 C          2.4495409638       -1.2592897026       -0.2787844583
 C          3.8266002857       -1.7514510748       -0.7294685188
 C          1.3840083652       -2.2594388747       -0.7249041609
 O          1.0081674186       -2.2878964274       -1.8877204312
 O          2.1258641683        1.1964670231        1.0123171029
 O          2.0295188093        4.6530397723       -1.4223196283
 N          2.1301564786        0.0080569306       -0.9002414015
 C          1.9118290868        1.1245578859       -0.1888573468
 C          1.4370375112        2.3479890539       -0.9745075432
 C          2.4924767549        3.4604156979       -0.8533813894
 N          1.1279425025        2.1683176049       -2.3798521670
 N          0.9487993465       -3.1070129026        0.2168837350
 C         -0.1296313779       -4.0543339942       -0.0295091898
 C         -0.0312603555       -5.2217729507        0.9372988172
 C         -1.4617133406       -3.2949050645        0.1389797083
 O         -2.2111571137       -3.4627918792        1.0732507159
 N         -1.6829316139       -2.4267235361       -0.8724754672
 O         -0.9094959396        0.3006181119       -1.1087408656
 O         -2.4120027916        0.6238679221        0.5325076892
 C         -2.6369958009       -1.3497758264       -0.7443634165
 C         -1.8593295879       -0.0649890759       -0.4667166359
 C         -3.4503210762       -1.1816042474       -2.0266024330
 H          2.4314201204       -1.1067132222        0.8036175578
 H          3.8273174749       -1.9108706488       -1.8053495856
 H          4.0678738276       -2.6889130423       -0.2354590749
 H          4.5829182734       -1.0124933053       -0.4779451766
 H          1.5927574124        4.4089777917       -2.2504738592
 H          1.7508284003       -0.0762849019       -1.8354176518
 H          0.5240211162        2.7027735103       -0.4821063606
 H          3.4187231269        3.1299446544       -1.3506594995
 H          2.7086380551        3.6587922980        0.1974347313
 H          0.3373088049        1.5419634375       -2.4810427038
 H          1.9235631227        1.7849101269       -2.8810929567
 H          1.1161834474       -2.8826073827        1.1864053597
 H         -0.0324551986       -4.3870123521       -1.0685939962
 H         -0.7840956483       -5.9645260337        0.6905320218
 H         -0.2201323671       -4.8750904140        1.9503024837
 H          0.9532011802       -5.6794819670        0.8849255358
 H         -0.9448531335       -2.2840361583       -1.5556335959
 H         -3.2806872761       -1.5757485765        0.1105293195
 H         -2.7885605339       -0.9341151237       -2.8538188462
 H         -4.1821672473       -0.3869643159       -1.9076578284
 H         -3.9685805452       -2.1092323947       -2.2532794730
 C         -1.7499374774        1.7388595210        1.0356594083
 C         -0.6105088293        1.5889865114        1.8358845133
 C         -2.2842763846        2.9937182108        0.7906686310
 C         -0.0313256537        2.7340697811        2.3853855295
 C         -0.5510481860        3.9862097471        2.1252255294
 C         -1.6791856817        4.1162324817        1.3290945840
 H         -3.1660989927        3.0764743846        0.1741658191
 H         -0.0793465486        4.8636275310        2.5391028009
 H         -2.0878195255        5.0932944966        1.1221229374
 H          0.8560600437        2.6205827316        2.9879159450
 C          0.0135527893        0.2837797055        2.0940674999
 O         -0.2028235216       -0.7447444490        1.4956830670
 H          0.7271427524        0.3081211046        2.9354402660
