  56
        -94.14937678
 C          2.4539253178       -1.2499813972       -0.2766199014
 C          3.8330802396       -1.7376296995       -0.7260458680
 C          1.3919956226       -2.2531532140       -0.7245745708
 O          1.0178825149       -2.2824164298       -1.8879414729
 O          2.1198084171        1.2032713623        1.0163355081
 O          2.0343955478        4.6570890080       -1.4276056572
 N          2.1316454998        0.0169383197       -0.8975586586
 C          1.9087520558        1.1321252798       -0.1854047104
 C          1.4340784103        2.3556388473       -0.9709058257
 C          2.4941240525        3.4645412407       -0.8560084569
 N          1.1191369199        2.1749648245       -2.3748494483
 N          0.9581011642       -3.1022234548        0.2164928813
 C         -0.1169837216       -4.0529683413       -0.0312586351
 C         -0.0167279594       -5.2192090963        0.9368288472
 C         -1.4517895879       -3.2977632529        0.1342940490
 O         -2.2023715659       -3.4675609049        1.0673122454
 N         -1.6743586482       -2.4311316879       -0.8783053597
 O         -0.9100797086        0.3001279740       -1.1089532498
 O         -2.4162897551        0.6134732519        0.5307651130
 C         -2.6323230834       -1.3573924923       -0.7518946433
 C         -1.8597293085       -0.0706050202       -0.4695670727
 C         -3.4419077023       -1.1900186936       -2.0365657066
 H          2.4341065397       -1.0982196426        0.8059061310
 H          4.5868763312       -0.9965105424       -0.4731999162
 H          3.8355669221       -1.8964033427       -1.8020673352
 H          4.0766572392       -2.6746471445       -0.2322603877
 H          1.5932744682        4.4119133741       -2.2531511002
 H          1.7536561164       -0.0677827580       -1.8332468324
 H          0.5242182876        2.7141866877       -0.4753111945
 H          3.4178511179        3.1288804109       -1.3545857536
 H          2.7139298195        3.6654848789        0.1935568311
 H          0.3280600525        1.5485333199       -2.4722666977
 H          1.9126099381        1.7908086336       -2.8789881899
 H          1.1228604506       -2.8768967887        1.1862911700
 H         -0.0168605039       -4.3862204035       -1.0698831910
 H          0.9687001747       -5.6751494851        0.8853876164
 H         -0.7681604847       -5.9636681992        0.6906199635
 H         -0.2066409467       -4.8717164496        1.9494521891
 H         -0.9352046596       -2.2859853882       -1.5598025495
 H         -3.2780812845       -1.5867968037        0.1005344280
 H         -2.7783064202       -0.9387739245       -2.8611670057
 H         -4.1769666505       -0.3981863702       -1.9187514179
 H         -3.9561185375       -2.1190922352       -2.2665298734
 C         -1.7596465310        1.7300694355        1.0373088046
 C         -0.6197485840        1.5836955033        1.8375137177
 C         -2.3002593438        2.9829105365        0.7958063993
 C         -0.0462964831        2.7301616257        2.3900968639
 C         -0.5723219254        3.9804001911        2.1334403832
 C         -1.7010910024        4.1069466437        1.3376538731
 H         -3.1824695729        3.0629121191        0.1794913525
 H         -0.1050621956        4.8589789134        2.5499011898
 H         -2.1148673040        5.0824754399        1.1336444023
 H          0.8416276007        2.6194995905        2.9923609032
 C          0.0098190309        0.2807651606        2.0937748467
 O         -0.2020167064       -0.7477523203        1.4937659198
 H          0.7227667950        0.3067440445        2.9356555626
