  56
        -94.14935597
 C         -0.7846039731        1.5661360240       -1.6320731728
 C         -1.3467789280        0.7964511243       -2.8176710276
 C          0.6876633474        1.1723768020       -1.3802091627
 O          1.3164922764        0.5015023689       -2.1842743302
 O         -0.9672097308        3.1647697367        0.7179938322
 O         -2.5503683738        4.0064455901        2.8071755455
 N         -1.6550071423        1.3859882905       -0.4840754027
 C         -1.7599720392        2.2443501129        0.5356468319
 C         -2.9337515930        1.9821697227        1.4703334179
 C         -3.4722658991        3.3273982873        2.0126036992
 N         -3.9429706796        1.1790630144        0.7910598835
 N          1.2031071630        1.6927681637       -0.2645217139
 C          2.6097968009        1.6065453998        0.1037534316
 C          2.8742431556        2.5364011424        1.2758354189
 C          2.9546799748        0.1502103720        0.4801846206
 O          2.9543598029       -0.2559273917        1.6214799659
 N          3.2862014408       -0.6016839655       -0.5920473462
 O          1.9069670388       -3.8311242779       -1.1067192559
 O          1.0901843339       -1.8878988656       -0.2914253843
 C          3.4202352922       -2.0363033298       -0.4808748758
 C          2.0670046401       -2.7200196356       -0.6881885394
 C          4.4492086551       -2.5763156791       -1.4651640461
 H         -0.7573123073        2.6436575741       -1.8576794465
 H         -2.3366939940        1.1628954716       -3.0771354895
 H         -1.4066942590       -0.2630510415       -2.5778365713
 H         -0.6864113054        0.9138762264       -3.6718254694
 H         -1.7271371852        4.0698712554        2.2948978825
 H         -2.3518398983        0.6517774477       -0.5190299429
 H         -2.5375108470        1.3994556153        2.3115348429
 H         -4.3487113046        3.1394418172        2.6417673705
 H         -3.7883778046        3.9487584001        1.1552866797
 H         -4.4681116350        1.7624915708        0.1449459961
 H         -4.6022529860        0.8132094635        1.4688758069
 H          0.6219012651        2.3140526201        0.2952001636
 H          3.2169826197        1.8874905505       -0.7679690790
 H          2.3447748781        2.1731335366        2.1532852717
 H          2.5422436589        3.5454027113        1.0448279765
 H          3.9369014421        2.5539804661        1.5015103223
 H          2.9795791176       -0.2524948285       -1.4977450338
 H          3.7243172641       -2.2464368552        0.5543401076
 H          4.1831289532       -2.2853630864       -2.4787377505
 H          4.4704742817       -3.6607062198       -1.4099664052
 H          5.4340925288       -2.1831600831       -1.2313406920
 C         -0.2483676278       -2.1615942214       -0.4414104739
 C         -1.1123440561       -1.6417904847        0.5345603647
 C         -0.7592711620       -2.8395703862       -1.5390131249
 C         -2.4879612553       -1.8198192270        0.3803985731
 C         -2.9953001793       -2.4994953679       -0.7083773522
 C         -2.1283114834       -3.0093956846       -1.6636117308
 H         -0.0905857459       -3.2305458235       -2.2883791021
 H         -4.0604247488       -2.6345608636       -0.8159216466
 H         -2.5171459319       -3.5402052639       -2.5193374818
 H         -3.1364385828       -1.4075553015        1.1378678705
 C         -0.5961531415       -0.9257494380        1.7111060121
 O         -1.3009053825       -0.4118943866        2.5459915650
 H          0.5017682653       -0.8895479588        1.7879754344
