  56
        -94.14935468
 C         -0.8164599423        1.5483425102       -1.6275055526
 C         -1.3687972325        0.7619977977       -2.8067231212
 C          0.6617952872        1.1782978467       -1.3744124939
 O          1.2996009111        0.5086859724       -2.1723491005
 O         -1.0203318059        3.1627594137        0.7095868980
 O         -2.6090048052        3.9922752051        2.7984246311
 N         -1.6822951379        1.3637611468       -0.4768172077
 C         -1.7979167831        2.2274664609        0.5370353421
 C         -2.9625426503        1.9512512878        1.4790408842
 C         -3.5227945465        3.2903902648        2.0142402255
 N         -3.9598907400        1.1245562781        0.8108109826
 N          1.1706786770        1.7169095920       -0.2643165472
 C          2.5787555717        1.6541659010        0.1028741576
 C          2.8310910136        2.5972601474        1.2670551038
 C          2.9456479389        0.2062466166        0.4907630489
 O          2.9475580874       -0.1918677605        1.6348542558
 N          3.2942793157       -0.5474007000       -0.5747717379
 O          1.9912045630       -3.8065909681       -1.0918383742
 O          1.1241400500       -1.8810805516       -0.2857562616
 C          3.4579600089       -1.9780933661       -0.4526876568
 C          2.1224788572       -2.6919264780       -0.6727261533
 C          4.5109572007       -2.5016514703       -1.4203644932
 H         -0.8055544208        2.6244815708       -1.8608422697
 H         -2.3646808571        1.1114768375       -3.0667794022
 H         -1.4120080884       -0.2966305680       -2.5597251753
 H         -0.7118396220        0.8837403096       -3.6628995205
 H         -1.7899842912        4.0667517624        2.2808206427
 H         -2.3663219406        0.6172413763       -0.5036272995
 H         -2.5518852222        1.3816635790        2.3222698880
 H         -4.3921179544        3.0912778514        2.6498019376
 H         -3.8549537151        3.8993720630        1.1541212241
 H         -4.5022227180        1.6940288180        0.1664855966
 H         -4.6055868256        0.7472585662        1.4953494110
 H          0.5811154744        2.3350445434        0.2901398322
 H          3.1807447070        1.9370162094       -0.7718412215
 H          3.8937589616        2.6329413805        1.4905254910
 H          2.3088070196        2.2328902963        2.1483223420
 H          2.4832664436        3.5991975268        1.0287013141
 H          2.9848466453       -0.2106681285       -1.4840344685
 H          3.7536314717       -2.1746397121        0.5876637928
 H          4.2512996539       -2.2236168009       -2.4392173724
 H          4.5556939530       -3.5849002519       -1.3573258987
 H          5.4837897840       -2.0849877531       -1.1769759910
 C         -0.2069339804       -2.1798446788       -0.4517588676
 C         -1.0924543955       -1.6690214818        0.5096863973
 C         -0.6918593614       -2.8736775079       -1.5512569965
 C         -2.4629063976       -1.8698983994        0.3380533400
 C         -2.9442565576       -2.5647382847       -0.7529729435
 C         -2.0561119761       -3.0671209000       -1.6926792392
 H         -0.0070630387       -3.2582631426       -2.2892473877
 H         -4.0055181980       -2.7174895723       -0.8743705111
 H         -2.4246258714       -3.6099889141       -2.5498370390
 H         -3.1281324937       -1.4626836397        1.0838306030
 C         -0.6032544948       -0.9401747239        1.6897673506
 O         -1.3263490971       -0.4430724540        2.5190599959
 H          0.4929251713       -0.8784390156        1.7755066970
