  56
        -94.14932206
 C         -4.1209351821        2.0383689759       -0.0527308163
 C         -4.7104353842        2.8936229233       -1.1619058525
 C         -2.7023925655        2.5031144482        0.3160782111
 O         -2.0816576706        3.3320677265       -0.3328206567
 O         -4.0540470031       -0.2141999403        1.6171707985
 O         -1.8458191768       -0.8632192588       -1.3244134084
 N         -4.0662571099        0.6464314386       -0.4695009191
 C         -4.0072052063       -0.3701453685        0.4048384558
 C         -3.7984963448       -1.7380760289       -0.2249943190
 C         -2.2689467757       -1.8609174169       -0.4310711149
 N         -4.3680681269       -2.7555700478        0.6277451870
 N         -2.2172303297        1.8844540241        1.3992960499
 C         -0.8684645711        2.0760174333        1.9029691456
 C         -0.7653339636        1.5156551213        3.3113765601
 C          0.1377757789        1.3914856209        0.9624933867
 O          0.7496255305        0.3736940913        1.2464796555
 N          0.3023080151        2.0146591498       -0.2041242359
 O          0.9065020395       -0.9288693031       -1.1386206967
 O          2.8597363658       -0.0198663270       -0.4706534341
 C          1.2021324668        1.4817241461       -1.2095045107
 C          1.5789938239        0.0345294732       -0.8567315163
 C          0.5412434478        1.5376558890       -2.5831493614
 H         -4.7455223055        2.0768210918        0.8477458258
 H         -4.7957131635        3.9229300316       -0.8258244862
 H         -5.6940573545        2.5252623520       -1.4397826846
 H         -4.0573275404        2.8746417853       -2.0311155139
 H         -0.8708947921       -0.9108461116       -1.3684883522
 H         -3.7946602771        0.4643325422       -1.4246978027
 H         -4.2797518813       -1.7818723464       -1.2093365069
 H         -2.0432410256       -2.8611848494       -0.8300646450
 H         -1.7643433134       -1.7556278721        0.5409208706
 H         -4.2447071561       -2.4815011226        1.5986209533
 H         -3.9164198236       -3.6510487088        0.4820597514
 H         -2.7823313959        1.1566633302        1.8343958162
 H         -0.6522984548        3.1526222548        1.8898764641
 H         -1.4906460054        1.9959520470        3.9625873411
 H          0.2338570352        1.6819616255        3.7040826912
 H         -0.9516749709        0.4445421292        3.2953895252
 H         -0.3292087418        2.7756554135       -0.4590887317
 H          2.1296523456        2.0717016149       -1.2025822974
 H         -0.3665275546        0.9393214354       -2.5850996513
 H          1.2169385240        1.1534935692       -3.3426424436
 H          0.2871959528        2.5669069821       -2.8239173156
 C          3.4128365684       -1.2199288780       -0.0546770822
 C          4.7139105196       -1.5288227041       -0.4758707918
 C          2.7286727407       -2.0729235357        0.7963378080
 C          5.3006157073       -2.7142658274       -0.0290718153
 C          4.6151390778       -3.5697972981        0.8082916552
 C          3.3315899132       -3.2442038570        1.2220644794
 H          1.7404250596       -1.7997911616        1.1284607244
 H          5.0769065914       -4.4856215284        1.1443474849
 H          2.7943468496       -3.9044996322        1.8860217207
 H          6.3033790264       -2.9351533504       -0.3631088779
 C          5.4607638305       -0.6401400472       -1.3735700502
 O          6.5743003017       -0.8499289823       -1.7833514445
 H          4.9083834638        0.2735493640       -1.6615729669
