  56
        -94.14932194
 C         -1.5089500227       -3.1684368193        1.1063446182
 C         -1.7381180370       -4.4376377939        0.3032705271
 C         -2.4791588645       -2.0544060053        0.6679192975
 O         -3.1053352205       -2.0959747162       -0.3797635617
 O         -0.0931302136       -1.3605745988        2.7262341865
 O          2.3669708153       -3.2174750490       -0.2674136577
 N         -0.1384818139       -2.7149525970        0.9259511072
 C          0.4638814917       -1.8548091048        1.7518454394
 C          1.9317561732       -1.5081099506        1.4558750999
 C          2.3884422391       -1.8375755573        0.0308020490
 N          2.1855784312       -0.0973553870        1.7076433778
 N         -2.5712491098       -1.0616297912        1.5616491791
 C         -3.3451260297        0.1465124838        1.3205136399
 C         -3.5804140010        0.8744049898        2.6323976048
 C         -2.5391825239        1.0058580553        0.3354050876
 O         -1.8283040994        1.9330947010        0.6727736697
 N         -2.6566983525        0.6028528134       -0.9453709575
 O          0.1349065548        0.2417934991       -0.6590036734
 O          0.2533322139        2.3520372752       -1.4191731728
 C         -1.7176186706        1.1355197072       -1.9165094998
 C         -0.3471862597        1.1740220894       -1.2509439824
 C         -1.6599917170        0.2446625611       -3.1492610543
 H         -1.6620068144       -3.3473000079        2.1789054167
 H         -1.0078452712       -5.1961107273        0.5736666695
 H         -1.6579007641       -4.2190048053       -0.7588272609
 H         -2.7367802530       -4.8197652621        0.4954434144
 H          2.9972773407       -3.6701378156        0.3042390008
 H          0.3623693995       -3.0621597877        0.1196612241
 H          2.5388290945       -2.0835520008        2.1739606393
 H          3.3962220320       -1.4236532500       -0.0994957667
 H          1.7212382547       -1.3562158081       -0.6865788304
 H          1.8074984169        0.1341396335        2.6233227512
 H          1.6478895967        0.4407758924        1.0321973277
 H         -1.8565617546       -1.0163327794        2.2905787322
 H         -4.2892706056       -0.1503162361        0.8492573697
 H         -2.6283454521        1.2160395895        3.0313152708
 H         -4.0581532116        0.2144124599        3.3516396040
 H         -4.2137157206        1.7412817726        2.4656525727
 H         -3.0531957644       -0.3183093600       -1.1219784555
 H         -1.9986649802        2.1622689260       -2.1784020437
 H         -0.8871663641        0.5977077928       -3.8262933202
 H         -2.6202085739        0.2522636442       -3.6583912486
 H         -1.4206138049       -0.7739375426       -2.8518775838
 C          1.5115862172        2.5054637862       -0.8621070292
 C          2.6166364810        1.8031035276       -1.3633315127
 C          1.6446076185        3.3560984299        0.2235276732
 C          3.8525146093        1.9810246880       -0.7381444794
 C          3.9881161575        2.8367101656        0.3351182173
 C          2.8840158383        3.5266215574        0.8142221576
 H          0.7642161755        3.8554743286        0.5966167109
 H          4.9501610146        2.9629512937        0.8067727185
 H          2.9851190401        4.1895466331        1.6597016869
 H          4.7078341321        1.4393625101       -1.1145510264
 C          2.5130115225        0.9012369337       -2.5161038138
 O          1.5686958422        0.7846839629       -3.2553411182
 H          3.4328223770        0.3036230676       -2.6762334912
