  56
        -94.14932181
 C          0.7876599757       -3.1226200975        0.1887885756
 C          1.0392313149       -4.6233530574        0.1279888452
 C         -0.7156950614       -2.8580353458       -0.0177132876
 O         -1.2802577025       -3.1713604762       -1.0432679945
 O          0.3082799193       -0.5616337045       -0.8406957006
 O          1.1246744066        1.5078437952       -2.3507806047
 N          1.5156177210       -2.4626243444       -0.8786252921
 C          1.2139494248       -1.2464663796       -1.3140025120
 C          2.0854636138       -0.7432037075       -2.4647034781
 C          2.3144978724        0.7782968587       -2.3058812989
 N          3.3124059977       -1.5208623025       -2.5348882985
 N         -1.3400222143       -2.3031127473        1.0391478095
 C         -2.7696319166       -2.0857912399        1.0815611798
 C         -3.3652424498       -2.6785862328        2.3538167770
 C         -3.1721652836       -0.6044958672        0.9432575099
 O         -4.1592234569       -0.1588135063        1.4920346820
 N         -2.3784306140        0.1218184672        0.1363031597
 O         -1.7182518946        3.6643027420        0.0171268166
 O         -0.5049949302        1.8226912666        0.5272120750
 C         -2.7080954496        1.4797966338       -0.2218756698
 C         -1.6047321513        2.4751835711        0.1214644170
 C         -2.9878804380        1.6014460236       -1.7249017704
 H          1.1238319797       -2.7138232095        1.1498161325
 H          2.1045393912       -4.8325189131        0.1927277039
 H          0.6469190884       -5.0201416302       -0.8056822162
 H          0.5359908069       -5.1183260395        0.9544527961
 H          0.5135691575        1.0535998162       -1.7416600352
 H          2.2603244173       -2.9518835548       -1.3574417388
 H          1.5144950967       -0.9129547425       -3.3865590312
 H          2.9428979005        1.1456805614       -3.1240613608
 H          2.8460525003        0.9542279053       -1.3540238290
 H          3.9290152897       -1.2563516835       -1.7715843503
 H          3.8017940495       -1.3287045877       -3.4017878702
 H         -0.8108226125       -2.0452205669        1.8572898118
 H         -3.1779131173       -2.5966346769        0.1990288752
 H         -2.8923542682       -2.2394704774        3.2301297458
 H         -3.2276599118       -3.7564108990        2.3754958168
 H         -4.4255434917       -2.4479446518        2.3914278796
 H         -1.5551578820       -0.2880585941       -0.2884426768
 H         -3.6069470704        1.7506971076        0.3466143403
 H         -3.8307875729        0.9701677944       -1.9921597302
 H         -2.1157469188        1.2871778829       -2.2946898152
 H         -3.2193246696        2.6334153113       -1.9727510133
 C          0.7456105209        2.3675876390        0.6905590838
 C          1.6976839564        1.5018374165        1.2599788832
 C          1.1275595000        3.6292643000        0.2598373125
 C          3.0223897829        1.9224302205        1.3735231095
 C          3.3968227694        3.1814791284        0.9503239644
 C          2.4470369292        4.0275964884        0.3977120013
 H          0.4038803444        4.2896807471       -0.1874312991
 H          4.4224101395        3.5040328026        1.0451790837
 H          2.7349349419        5.0109825813        0.0585884806
 H          3.7365493482        1.2377558916        1.8072800420
 C          1.3004964711        0.1731285621        1.7230963171
 O          2.0579704386       -0.7334911605        1.9808722685
 H          0.2096276350        0.0527760117        1.8356038213
