  56
        -94.15646424
 C         -2.2275110837        0.6551039213       -1.8063713860
 C         -1.3105173301        0.6042193435       -3.0264873648
 C         -1.7809151006        1.7981639522       -0.8895769821
 O         -1.3943555465        2.8651933206       -1.3523407073
 O         -4.4778418702       -0.9334543045       -1.2256057817
 O         -2.1565071255       -1.0307589824        1.7458104720
 N         -2.2415645357       -0.6127294965       -1.1172865460
 C         -3.3790730840       -1.2821428652       -0.8402651643
 C         -3.1901592802       -2.5024807278        0.0683224704
 C         -3.1704256789       -1.9751415133        1.5187875094
 N         -4.2627273896       -3.4703320863       -0.0572637799
 N         -1.8515584397        1.5572921315        0.4249114506
 C         -1.3183379199        2.4834129500        1.4144606515
 C         -1.8553239364        2.1407375573        2.7913174372
 C          0.2014691218        2.3120506714        1.3203303395
 O          0.8477019817        1.5564919101        2.0234317500
 N          0.7585767623        3.0148677871        0.3091409608
 O          1.2214847384        0.4548650243       -0.7074484716
 O          3.2723708076        0.6050601889        0.2085878691
 C          2.0888670571        2.6293606563       -0.1152322261
 C          2.1175639091        1.1083072346       -0.2325625921
 C          2.4155906783        3.2576925058       -1.4642256557
 H         -3.2618340521        0.8532584550       -2.1161068242
 H         -1.6675597943       -0.1352118557       -3.7380813242
 H         -0.3028214029        0.3425977126       -2.7094469294
 H         -1.2877563952        1.5809026112       -3.5010303594
 H         -1.3013772822       -1.4366195149        1.5049261150
 H         -1.3504194310       -0.9695568787       -0.8029034448
 H         -2.2350228023       -2.9944195249       -0.1452235407
 H         -3.0722771849       -2.8315144060        2.1970629502
 H         -4.1165882616       -1.4701986028        1.7317451208
 H         -5.1488754897       -2.9728335697       -0.0094472555
 H         -4.2264231786       -3.9072633231       -0.9728509176
 H         -2.0978594952        0.6332588912        0.7784400808
 H         -1.5892104525        3.5026674488        1.1160973804
 H         -2.9389856113        2.2183099323        2.8005464771
 H         -1.4411340680        2.8214340101        3.5299305167
 H         -1.5703460591        1.1245534513        3.0512691226
 H          0.1204509539        3.3623953443       -0.4097465056
 H          2.8194255388        2.9229082850        0.6476908500
 H          1.6878689876        2.9341661507       -2.2054552296
 H          3.4110396500        2.9656519744       -1.7887696375
 H          2.3749337171        4.3403067500       -1.3801228986
 C          3.5266993424       -0.7531479957        0.0831324847
 C          2.5569569465       -1.7265107504        0.3386609517
 C          4.7925740765       -1.1193273255       -0.3490023360
 C          2.8743130739       -3.0651291895        0.1129191423
 C          4.1384464828       -3.4304616034       -0.3062708171
 C          5.1013022994       -2.4570035673       -0.5238414618
 H          5.5213180984       -0.3475471378       -0.5407386041
 H          4.3749208577       -4.4712964202       -0.4638291469
 H          6.0928631935       -2.7366993532       -0.8448972869
 H          2.1114272544       -3.8071555316        0.2942513511
 C          1.2312800883       -1.3715595417        0.8697154851
 O          0.2151275096       -1.9852565311        0.6214094888
 H          1.2254306230       -0.5379461941        1.5904103429
