  56
        -94.15294767
 C         -2.3577839409        0.4778002486       -2.2281866772
 C         -1.8991349696        0.3798591797       -3.6727683487
 C         -1.9820636945        1.8355931018       -1.6185821822
 O         -1.2607339147        2.6482902160       -2.1725814179
 O         -3.3141511255       -0.6311911340        0.1502644707
 O          0.1339764234       -0.5618250286        1.4851677180
 N         -1.7168676424       -0.5634353207       -1.4361242864
 C         -2.2435714279       -1.0266588629       -0.2950606592
 C         -1.4319824270       -2.0827164575        0.4463543402
 C         -0.9374992734       -1.4332921076        1.7617915078
 N         -2.2802786351       -3.2399419690        0.6478983440
 N         -2.4958717351        2.0168840673       -0.3905582775
 C         -2.0223886757        3.0690874879        0.4973527779
 C         -2.9828753064        3.2455991745        1.6593583270
 C         -0.6316651411        2.6118435479        0.9660082273
 O         -0.4466931054        2.0373828743        2.0272587992
 N          0.3401332021        2.8595198272        0.0703577613
 O          0.9343429675        0.4712298392       -1.2258916352
 O          2.6080934958        0.1261794215        0.2367672180
 C          1.6595771755        2.2837648014        0.2048449193
 C          1.6667033071        0.8604112273       -0.3560574085
 C          2.6822048990        3.1268150129       -0.5531807850
 H         -3.4403582665        0.3310949764       -2.1381755003
 H         -0.8277931759        0.5580183460       -3.7223328058
 H         -2.3997553820        1.1365182982       -4.2700122165
 H         -2.1239852677       -0.6038825181       -4.0753979622
 H         -0.0073854714        0.2907734464        1.9391437398
 H         -0.7423622200       -0.7328407691       -1.6436699244
 H         -0.5549942123       -2.3832902015       -0.1380322565
 H         -0.5816294465       -2.2221549763        2.4442373893
 H         -1.7703073253       -0.9092104552        2.2403719819
 H         -3.1790306831       -2.9335181301        1.0091310294
 H         -1.8626430038       -3.8679894999        1.3266092378
 H         -3.0292444970        1.2568779005        0.0271942562
 H         -1.9277242737        3.9903589006       -0.0883195498
 H         -3.9834920754        3.4555081619        1.2916272521
 H         -2.6541558847        4.0666292838        2.2904389530
 H         -3.0035766999        2.3390003965        2.2593736397
 H          0.0509139788        3.1151887585       -0.8735049035
 H          1.9053968549        2.2352341759        1.2704439014
 H          3.6757106678        2.7017886694       -0.4386940436
 H          2.6843820586        4.1413861522       -0.1636397434
 H          2.4260119844        3.1562559132       -1.6102161724
 C          2.6610827268       -1.2311999952       -0.0790298855
 C          2.3777183685       -2.1568230084        0.9275910890
 C          2.9505072822       -1.6496063514       -1.3662906757
 C          2.3853489770       -3.5121335839        0.6087638753
 C          2.6807661880       -3.9354860491       -0.6731670260
 C          2.9671712323       -3.0042824844       -1.6581853632
 H          3.1531548058       -0.9177318583       -2.1333534418
 H          2.6828132471       -4.9888646000       -0.9080916727
 H          3.1952856723       -3.3283132156       -2.6622166254
 H          2.1511251874       -4.2175310484        1.3919754155
 C          2.0504501947       -1.7245874037        2.3030780932
 O          1.5204097562       -2.4393098520        3.1189744779
 H          2.4084104785       -0.7144457722        2.5601323827
