  56
        -94.14931290
 C         -3.7718778196        1.0707961571       -1.1828058705
 C         -4.5101924249        1.0770200154       -2.5109566406
 C         -2.5989013962        2.0621692034       -1.1905422695
 O         -2.1202091304        2.5170900960       -2.2203670256
 O         -3.0559788423        0.0411564494        1.3060508722
 O         -1.2891419731       -1.9547375627       -1.7699066300
 N         -3.2412522428       -0.2576905363       -0.9186715129
 C         -2.9133161180       -0.6680739041        0.3181354386
 C         -2.3656142003       -2.0969667675        0.4568902729
 C         -1.9964210849       -2.7793228334       -0.8705527257
 N         -1.2239073708       -2.1486188848        1.3555794557
 N         -2.1353760727        2.3384490412        0.0341528326
 C         -0.9845443219        3.1925540615        0.2753602848
 C         -0.9926378888        3.6666962935        1.7188851225
 C          0.2998598068        2.4144724535       -0.0402007120
 O          1.1130627496        2.0695418567        0.7984007480
 N          0.4617869143        2.1189788122       -1.3385269185
 O          0.7957875437       -0.5898473785       -0.4117918752
 O          2.9596964729       -0.0024681720       -0.2853654450
 C          1.5810351316        1.2821958751       -1.7172892208
 C          1.7079613983        0.1514375108       -0.6959400976
 C          1.3471614797        0.6818897009       -3.0989070762
 H         -4.4440334350        1.3231179625       -0.3544182898
 H         -5.2802298066        0.3102953252       -2.5182508056
 H         -3.8095872250        0.8952615152       -3.3225556477
 H         -4.9713774498        2.0474140243       -2.6714263479
 H         -0.5234213812       -1.5842253715       -1.3009077201
 H         -2.8679576523       -0.7643471455       -1.7120694316
 H         -3.1654807244       -2.6868553715        0.9273655209
 H         -2.8993650053       -3.0964367941       -1.4000186695
 H         -1.4053360420       -3.6694591233       -0.6221185698
 H         -1.4558422333       -1.7068846693        2.2395067470
 H         -0.4433540692       -1.6303161052        0.9631509162
 H         -2.4803472255        1.7801965802        0.8158704198
 H         -1.0482894770        4.0367178077       -0.4234486070
 H         -0.9043766051        2.8119713315        2.3854333470
 H         -1.9143838794        4.1994112062        1.9367326284
 H         -0.1469861564        4.3251624104        1.8959057922
 H         -0.2810910322        2.3241303319       -2.0052311509
 H          2.5105592800        1.8660924885       -1.6905230301
 H          0.4577871100        0.0549463513       -3.0876299443
 H          2.1999962091        0.0783091422       -3.3988331685
 H          1.2091463927        1.4793585938       -3.8245340621
 C          3.3111594319       -1.1142730642        0.4824029884
 C          2.7323086143       -1.4201341467        1.7165961747
 C          4.2974284953       -1.9310711976       -0.0527445203
 C          3.1492044997       -2.5794493465        2.3740608073
 C          4.1279064172       -3.3932022679        1.8426300440
 C          4.7126356193       -3.0601515157        0.6302539390
 H          4.7298901375       -1.6680214404       -1.0059683475
 H          4.4395236138       -4.2822512476        2.3688539442
 H          5.4855536914       -3.6840463143        0.2078965028
 H          2.6796254969       -2.8078832637        3.3191673126
 C          1.7422071053       -0.5538129446        2.3917478179
 O          1.1073171857       -0.9013913282        3.3556814887
 H          1.6423973326        0.4576024025        1.9734223989
