  56
        -94.14929420
 C         -2.0806227909       -0.3030674602       -1.9946961621
 C         -1.4449450958       -1.2368251152       -3.0096522129
 C         -1.1012876555        0.7598175997       -1.4775148660
 O          0.1110781182        0.6406240177       -1.4793165472
 O         -4.0763684680        0.5223037402       -0.2403653794
 O         -1.7253420717       -1.1738919995        2.2717365255
 N         -2.5623797295       -1.0436564815       -0.8378419086
 C         -3.5147901189       -0.5510247363       -0.0338386925
 C         -3.9004149209       -1.4289911470        1.1537925652
 C         -3.1042120766       -0.9725348409        2.4007661843
 N         -5.3172260020       -1.3365290004        1.4605519130
 N         -1.7400848537        1.8396407314       -0.9869523869
 C         -0.9918004075        2.8506686893       -0.2678376649
 C         -1.9480345633        3.7820545126        0.4660323912
 C         -0.0793496661        2.1454294217        0.7431333945
 O         -0.4915496914        1.2514138422        1.4570656709
 N          1.1671510266        2.6470142620        0.8317180044
 O          3.8217740047        1.5966163329       -0.1019303268
 O          2.6078391290       -0.1136005544        0.7498347996
 C          2.2001968339        2.0191574679        1.6369695056
 C          3.0099221981        1.1546910163        0.6629957602
 C          3.0780525246        3.0685158437        2.3029110035
 H         -2.9469259785        0.2092707344       -2.4315767358
 H         -1.1209580824       -0.6681875467       -3.8771842718
 H         -2.1613945580       -1.9916481994       -3.3231984695
 H         -0.5790815135       -1.7268348822       -2.5752643706
 H         -1.3103599685       -0.3659248461        1.9339383204
 H         -1.9849018334       -1.8232186528       -0.5324942192
 H         -3.6449532684       -2.4720960418        0.9461033005
 H         -3.4503054452       -1.5790479877        3.2432604394
 H         -3.3450488491        0.0765360968        2.6078111557
 H         -5.8628613488       -1.7260147711        0.6982831130
 H         -5.5689555144       -0.3536843430        1.5309202967
 H         -2.7361165182        1.7440650020       -0.7873694647
 H         -0.3800538600        3.4096449377       -0.9880875365
 H         -1.3941195605        4.5563779987        0.9908670264
 H         -2.5283737016        3.2133853335        1.1890617608
 H         -2.6276171960        4.2502704780       -0.2415514445
 H          1.4980665533        3.2791129098        0.1179022656
 H          1.6936695398        1.3784503859        2.3642273021
 H          3.6348278370        3.6167670907        1.5461757611
 H          3.7856149264        2.5899767344        2.9741733635
 H          2.4650860953        3.7615714374        2.8726544587
 C          3.0070227862       -1.0819890212       -0.1541344609
 C          2.0399902313       -2.0234117873       -0.5369096632
 C          4.2965822562       -1.1599109753       -0.6548748106
 C          2.3948537602       -3.0240376419       -1.4410596839
 C          3.6776654074       -3.0982149278       -1.9451930682
 C          4.6248142846       -2.1678122980       -1.5478371657
 H          5.0374318801       -0.4358495972       -0.3573331934
 H          3.9422450944       -3.8763069842       -2.6447154831
 H          5.6312986109       -2.2214149597       -1.9344408923
 H          1.6367670915       -3.7371458492       -1.7293921075
 C          0.6695089580       -1.9523896016       -0.0220704849
 O         -0.2362757751       -2.6479284976       -0.4232514122
 H          0.5070389985       -1.2097636193        0.7708599065
