  56
        -94.14929151
 C         -2.0810084066       -0.3173619278       -1.9990142500
 C         -1.4407840703       -1.2451711208       -3.0165209578
 C         -1.1093088750        0.7532697241       -1.4837392670
 O          0.1036924616        0.6412648033       -1.4825355008
 O         -4.0774039630        0.4914486765       -0.2395622402
 O         -1.7026867318       -1.1999305745        2.2484928976
 N         -2.5529159568       -1.0625262875       -0.8410636275
 C         -3.5080980105       -0.5781174319       -0.0352367336
 C         -3.8870176129       -1.4621030969        1.1503257542
 C         -3.0822087052       -1.0149556769        2.3950053623
 N         -5.3015461006       -1.3700855773        1.4671698423
 N         -1.7556974005        1.8312114769       -0.9982438229
 C         -1.0138224363        2.8468408077       -0.2788268296
 C         -1.9762639612        3.7810666603        0.4430797940
 C         -0.1080148474        2.1472535842        0.7419060551
 O         -0.5239502695        1.2540532522        1.4547936812
 N          1.1368523024        2.6509994619        0.8387608113
 O          3.8083546940        1.6289645865       -0.0721102222
 O          2.6014690924       -0.0974032572        0.7569146993
 C          2.1652619950        2.0262043686        1.6523045675
 C          2.9928942583        1.1748963000        0.6818313894
 C          3.0267004173        3.0778346550        2.3360064853
 H         -2.9531064463        0.1878060857       -2.4327164788
 H         -0.5679847281       -1.7261386704       -2.5859287879
 H         -1.1269533169       -0.6738380796       -3.8860217300
 H         -2.1510821806       -2.0074476973       -3.3260353516
 H         -1.3014879863       -0.3820595750        1.9178331224
 H         -1.9692126335       -1.8384813377       -0.5386236963
 H         -3.6345813500       -2.5041875209        0.9337181956
 H         -3.4129734097       -1.6360996628        3.2329405281
 H         -3.3310253432        0.0287536303        2.6187605262
 H         -5.8527871909       -1.7510580089        0.7046269430
 H         -5.5511306756       -0.3875522788        1.5485280236
 H         -2.7501423425        1.7272057371       -0.7949910292
 H         -0.3974347804        3.4023171857       -0.9977155065
 H         -2.6497941348        4.2464034131       -0.2721316150
 H         -1.4268185373        4.5574838400        0.9695085084
 H         -2.5626699694        3.2151449847        1.1633540917
 H          1.4714206792        3.2835345216        0.1270399374
 H          1.6551667903        1.3768080770        2.3692943238
 H          3.5898203246        3.6343274497        1.5900820856
 H          3.7282416976        2.6004672927        3.0143894444
 H          2.4009307549        3.7632560594        2.9010632939
 C          3.0179499624       -1.0575907272       -0.1481072458
 C          2.0638870652       -2.0081880408       -0.5408662273
 C          4.3114346211       -1.1190670458       -0.6409551660
 C          2.4356839207       -3.0013889473       -1.4463113402
 C          3.7225499904       -3.0594231798       -1.9422894045
 C          4.6565798797       -2.1198822286       -1.5355356770
 H          5.0422680953       -0.3878464339       -0.3362673874
 H          4.0003913396       -3.8318968302       -2.6429004844
 H          5.6659917798       -2.1605685977       -1.9160389671
 H          1.6874886817       -3.7218124832       -1.7421676609
 C          0.6894750370       -1.9540177431       -0.0341939221
 O         -0.2077154282       -2.6540781645       -0.4461825253
 H          0.5159262859       -1.2200456532        0.7644376771
