  56
        -94.14924651
 C         -1.5056543100       -1.7616393668       -0.9035191945
 C         -0.4179150366       -2.8150718664       -1.0198924759
 C         -0.9991420167       -0.3758596468       -1.3278249225
 O          0.1854405135       -0.0820938864       -1.3847818090
 O         -3.9028734606       -0.5940017118        0.0564779996
 O         -0.8497421564       -0.9389542574        2.8645169728
 N         -1.9427567461       -1.6475424679        0.4798869213
 C         -3.0610311987       -1.0030302576        0.8475584895
 C         -3.2091686117       -0.8072701448        2.3601808365
 C         -1.9688319522       -0.0742721975        2.8993182468
 N         -4.3990779563       -0.0580090642        2.7083375339
 N         -1.9899844691        0.4942947813       -1.5799502246
 C         -1.7286191300        1.9187794867       -1.7270084813
 C         -3.0420773540        2.6593906356       -1.9131137182
 C         -1.0212656225        2.3692304568       -0.4373102257
 O         -1.6115779003        2.4948184466        0.6141307743
 N          0.3070553199        2.5859969648       -0.5813245952
 O          1.2284600798        0.6596019959        1.8469144980
 O          2.5178682943        0.8499138911        0.0081948816
 C          1.1805242006        2.7100981597        0.5712282486
 C          1.6487885888        1.2938196277        0.9135002903
 C          2.3377136084        3.6549542411        0.2788996265
 H         -2.3791281856       -2.0226342147       -1.5122493044
 H          0.4237439533       -2.5477498036       -0.3843853167
 H         -0.0651177638       -2.8676109679       -2.0462680007
 H         -0.7992315946       -3.7869025201       -0.7185732615
 H         -0.0499413799       -0.4047986176        2.7537830857
 H         -1.2422305187       -1.7779587415        1.2073385950
 H         -3.2635655108       -1.7927051458        2.8397398680
 H         -2.1790258549        0.2293944758        3.9324542956
 H         -1.7936936409        0.8266596472        2.2998326872
 H         -5.2021008122       -0.4743826674        2.2460910389
 H         -4.3130055153        0.8868415923        2.3435855797
 H         -2.9331119190        0.2283952261       -1.2901986294
 H         -1.0657267366        2.0619306673       -2.5886394487
 H         -2.8543398249        3.7152701089       -2.0892682119
 H         -3.6427820734        2.5573998751       -1.0122574272
 H         -3.5886791628        2.2487790334       -2.7578789613
 H          0.7481562726        2.2283690469       -1.4179440184
 H          0.5636980605        3.0717254322        1.4011494722
 H          2.9437354265        3.2710243601       -0.5379501009
 H          2.9641603199        3.7615920769        1.1605018750
 H          1.9501732537        4.6322765749        0.0038636476
 C          2.9120571743       -0.4833000262        0.0062762683
 C          2.8827095887       -1.1702638627       -1.2133347591
 C          3.3235458039       -1.1233095174        1.1640070718
 C          3.2540334029       -2.5129391010       -1.2342817561
 C          3.6583667158       -3.1552499732       -0.0800902213
 C          3.6976175910       -2.4569377825        1.1157734203
 H          3.3472991798       -0.5859270120        2.0986740765
 H          3.9419771463       -4.1960318105       -0.1094072454
 H          4.0157565644       -2.9487945326        2.0222253549
 H          3.2136783733       -3.0310350865       -2.1806541428
 C          2.4624904519       -0.5150598275       -2.4649017991
 O          2.2021069797       -1.0980590329       -3.4843171237
 H          2.4501500030        0.5871901463       -2.4130558619
