  56
        -94.14922581
 C         -1.8029606495       -0.3668669507       -2.1391797310
 C         -1.2718009884       -1.3894099310       -3.1311080677
 C         -0.7145740544        0.6658049716       -1.7803765280
 O          0.4464202017        0.5455645614       -2.1101409295
 O         -3.7927425888        0.5364431215       -0.3683434392
 O         -1.4882386565       -0.5292297903        1.9858704684
 N         -2.2746053341       -1.0350389351       -0.9389724601
 C         -3.2317098790       -0.5268021564       -0.1472238723
 C         -3.5957873049       -1.4028140748        1.0584420231
 C         -2.8177979412       -0.8706148246        2.2787504836
 N         -5.0131663162       -1.3718690296        1.3619500742
 N         -1.1993605279        1.6999439426       -1.0709306887
 C         -0.3576253811        2.8085888280       -0.6627398128
 C         -1.2177821140        3.9593268407       -0.1587680904
 C          0.6458590495        2.3766973449        0.4144835861
 O          1.8321696377        2.6178570668        0.3317336954
 N          0.0950440055        1.7566547261        1.4791642021
 O          3.1855503580        0.2273199254        2.0608484921
 O          1.4653896674       -0.3210955095        0.7056833205
 C          0.9710604637        1.1517173657        2.4672364946
 C          2.0398275183        0.3420904824        1.7394927840
 C          1.6139872400        2.1926618570        3.3779035280
 H         -2.6617251993        0.1732507127       -2.5566191938
 H         -2.0192075494       -2.1541281148       -3.3279776627
 H         -0.3699926216       -1.8518863374       -2.7357158697
 H         -1.0122098206       -0.8941876824       -4.0621640670
 H         -1.0193882447       -1.2834023084        1.5912090542
 H         -1.7139285974       -1.8057816369       -0.6020765843
 H         -3.2991687386       -2.4385568146        0.8614455124
 H         -2.8725822044       -1.6107722186        3.0863906117
 H         -3.2952059752        0.0509548561        2.6233303143
 H         -5.5403085325       -1.8300292581        0.6257900885
 H         -5.3202093002       -0.4029511507        1.3897432421
 H         -2.1802425229        1.7071524630       -0.8124076749
 H          0.2413690186        3.1207997724       -1.5277347898
 H         -0.5842603887        4.7900691549        0.1399947252
 H         -1.8073486689        3.6440353482        0.6993558017
 H         -1.8903607059        4.2972357662       -0.9439785599
 H         -0.8276134227        1.3513594730        1.4070589844
 H          0.3634825581        0.4521220398        3.0491261413
 H          2.1829666817        2.8970502325        2.7780381417
 H          2.2901334639        1.7009368090        4.0706906794
 H          0.8477823447        2.7263923512        3.9330096359
 C          2.2375368148       -0.8460175731       -0.2924734402
 C          1.9063996646       -2.1109701645       -0.8132167502
 C          3.3048210918       -0.1301487529       -0.8172878070
 C          2.6941596439       -2.6317913371       -1.8495474900
 C          3.7549126197       -1.9208909958       -2.3609040037
 C          4.0523210270       -0.6637568211       -1.8479792997
 H          3.5141809234        0.8536899195       -0.4274925983
 H          4.3461817323       -2.3327234500       -3.1643446439
 H          4.8708050168       -0.0935952801       -2.2597662036
 H          2.4427176211       -3.6021072231       -2.2541806217
 C          0.7693404240       -2.8843241683       -0.3584626364
 O         -0.1249888608       -2.5329300048        0.3878967807
 H          0.7376775392       -3.9033468205       -0.7936889238
