  56
        -94.14922110
 C          1.8961948153       -0.8657217178        1.0189774994
 C          2.9237075237       -1.2876483489        2.0615007958
 C          1.4788136511       -2.0337013531        0.1112855004
 O          1.7144712485       -2.0332044510       -1.0852604257
 O          0.4389909246        0.9075449131       -0.6059099166
 O          2.1280080139        3.6634874914        0.0172390540
 N          2.4312098569        0.1945234989        0.1998352732
 C          1.6612114209        0.9219988029       -0.6199780734
 C          2.4735585698        1.8026761315       -1.5642618658
 C          3.0546917162        3.0080896390       -0.7935926293
 N          3.5821839339        1.0090422076       -2.0825521718
 N          0.8520720130       -3.0404147790        0.7452084336
 C          0.1760005666       -4.1079362128        0.0171613033
 C          0.1058961659       -5.3662792971        0.8643198972
 C         -1.2263283614       -3.5624538515       -0.3160943810
 O         -2.2373610364       -3.9387862358        0.2308741992
 N         -1.1892947813       -2.5906044215       -1.2625545519
 O         -1.2773059604       -1.0142153341        0.9052600725
 O         -2.4370129197        0.5666029556       -0.2010024007
 C         -2.1952066746       -1.5518524015       -1.2574829917
 C         -1.9050779378       -0.6451267512       -0.0512477026
 C         -2.1963362229       -0.7926052513       -2.5744301916
 H          0.9811219219       -0.4874179028        1.4915680216
 H          2.5183915056       -2.0545603310        2.7150533812
 H          3.2079353991       -0.4290980662        2.6648850079
 H          3.8119326249       -1.6827403638        1.5722365729
 H          1.3300309886        3.8486347029       -0.5132197828
 H          3.4092951713        0.1476800436       -0.0560631892
 H          1.7849728917        2.1771811394       -2.3400196139
 H          3.4962085170        3.7033712570       -1.5262220478
 H          3.8515310379        2.6541641508       -0.1328659587
 H          4.1219077707        1.5516585524       -2.7482515010
 H          3.2283644893        0.1869135527       -2.5624663678
 H          0.4934392175       -2.8665756644        1.6725521968
 H          0.7405205078       -4.2762164608       -0.9053835317
 H         -0.5331267280       -5.1926843785        1.7267096742
 H          1.0985111269       -5.6571774035        1.1980387191
 H         -0.3265847794       -6.1743959103        0.2817306492
 H         -0.2741648737       -2.2915349655       -1.5815893032
 H         -3.1641489179       -2.0345639257       -1.0744134985
 H         -2.9968826970       -0.0590377244       -2.5856220023
 H         -2.3395386012       -1.4882585074       -3.3973359584
 H         -1.2442526455       -0.2819019732       -2.7025889004
 C         -2.1183984331        1.5389653173        0.7414788567
 C         -1.3863344177        2.6555611009        0.3215733830
 C         -2.4996856936        1.3985150158        2.0638367565
 C         -1.0476970425        3.6257235489        1.2624838839
 C         -1.4358636463        3.4919587302        2.5817641859
 C         -2.1612087861        2.3810407305        2.9809440531
 H         -3.0491466058        0.5214285720        2.3699516399
 H         -1.1664274226        4.2492393356        3.3019555515
 H         -2.4604776676        2.2698033201        4.0122929718
 H         -0.4716373332        4.4789694507        0.9389338655
 C         -0.9645284963        2.7856099285       -1.0805256957
 O         -0.1875642618        3.6202947965       -1.4927837429
 H         -1.4858417363        2.1113775042       -1.7752605571
