  56
        -94.14922102
 C          1.8998862722       -0.8683160276        1.0153310895
 C          2.9287745867       -1.2925119181        2.0556731844
 C          1.4812893818       -2.0347478560        0.1063082025
 O          1.7179863258       -2.0338305043       -1.0900628273
 O          0.4410824025        0.9127099149       -0.6001469662
 O          2.1282566822        3.6630391453        0.0392525333
 N          2.4341169169        0.1935778132        0.1978531832
 C          1.6633236187        0.9265927563       -0.6160461552
 C          2.4746319773        1.8134803205       -1.5554524563
 C          3.0549255865        3.0143387172       -0.7769725914
 N          3.5837622392        1.0242941674       -2.0793452417
 N          0.8531954155       -3.0411452826        0.7393678147
 C          0.1767712874       -4.1082328842        0.0109619467
 C          0.1016244865       -5.3649406312        0.8601484038
 C         -1.2236206030       -3.5607585843       -0.3274389557
 O         -2.2370126738       -3.9346872109        0.2167918794
 N         -1.1817817399       -2.5899441796       -1.2748216169
 O         -1.2756461947       -1.0178401026        0.8953955047
 O         -2.4371024848        0.5638875923       -0.2076944924
 C         -2.1850152925       -1.5486715206       -1.2729381881
 C         -1.9015073940       -0.6467195627       -0.0615299445
 C         -2.1739403574       -0.7842509670       -2.5869191026
 H          0.9854976963       -0.4906130427        1.4897137360
 H          3.8160277569       -1.6871760267        1.5643006662
 H          2.5240560698       -2.0604666805        2.7083670561
 H          3.2144349043       -0.4352618018        2.6602323633
 H          1.3296934178        3.8513070435       -0.4892190351
 H          3.4119098790        0.1477741866       -0.0592843393
 H          1.7854300400        2.1924246328       -2.3284889140
 H          3.4948720122        3.7151094735       -1.5053120776
 H          3.8528656535        2.6568380714       -0.1194614939
 H          4.1242508857        1.5726928403       -2.7396734682
 H          3.2306201427        0.2063705017       -2.5668468820
 H          0.4939082901       -2.8670714765        1.6664183953
 H          0.7433775459       -4.2792735043       -0.9097939849
 H         -0.5399071868       -5.1885904664        1.7201256973
 H          1.0925829520       -5.6571614334        1.1976427138
 H         -0.3305214533       -6.1732964589        0.2776652848
 H         -0.2648881112       -2.2930650092       -1.5910128232
 H         -3.1567817718       -2.0289980922       -1.0989685705
 H         -2.9732098301       -0.0493562967       -2.6018555657
 H         -2.3112698750       -1.4763047459       -3.4138716578
 H         -1.2199990610       -0.2745032926       -2.7048732044
 C         -2.1252410471        1.5324750683        0.7409579942
 C         -1.3920185171        2.6518403534        0.3306938575
 C         -2.5145725323        1.3854579313        2.0602503560
 C         -1.0599756962        3.6178014052        1.2782603267
 C         -1.4561938524        3.4775316675        2.5944813874
 C         -2.1830041889        2.3641086042        2.9839805061
 H         -3.0648352548        0.5062540059        2.3587648924
 H         -1.1919553766        4.2316728624        3.3198962722
 H         -2.4886149256        2.2477859420        4.0129157017
 H         -0.4827724096        4.4730664031        0.9621273920
 C         -0.9633245623        2.7898747390       -1.0685885062
 O         -0.1859346362        3.6282015059       -1.4726441984
 H         -1.4798582636        2.1182405565       -1.7694028262
