  56
        -94.14921850
 C         -2.4594559671       -2.2198195609       -1.6156536054
 C         -2.9918261121       -2.0661441370       -3.0298890107
 C         -3.1098827902       -1.2063251168       -0.6569768996
 O         -3.7779054071       -0.2597698032       -1.0407616491
 O         -0.6134674316       -3.1254869652        0.3187612028
 O          1.9474501030       -4.3106300147       -0.0042444484
 N         -1.0225763432       -2.0076346137       -1.5961080420
 C         -0.2157938274       -2.4713446950       -0.6411704808
 C          1.2559362264       -2.1329841514       -0.8647124816
 C          2.1295520356       -2.9252452346        0.1293705928
 N          1.5745420003       -2.3817892621       -2.2644458449
 N         -2.8508782537       -1.4717707623        0.6310768234
 C         -3.1580603086       -0.5348384249        1.7020662543
 C         -3.0122299459       -1.2225106189        3.0474180497
 C         -2.1622697637        0.6229857771        1.5436109895
 O         -1.0980859016        0.6823658708        2.1306332321
 N         -2.5475620468        1.5452684341        0.6397327301
 O         -0.0923851249        0.7823157161       -0.5734963259
 O          0.7664595609        2.5163624669        0.5766236791
 C         -1.5706788361        2.5275837144        0.2052715367
 C         -0.2320808015        1.8088411197        0.0382708128
 C         -2.0006123269        3.1465000873       -1.1178934112
 H         -2.6484321837       -3.2298017744       -1.2301198149
 H         -2.4739299683       -2.7419616300       -3.7051081300
 H         -2.8534047607       -1.0414155761       -3.3657342760
 H         -4.0552220311       -2.2872498875       -3.0485071608
 H          1.0350118528       -4.4946585662        0.2619002147
 H         -0.6103492097       -1.4244042602       -2.3088577140
 H          1.3673374324       -1.0606864954       -0.6683956955
 H          1.8963736480       -2.5958961878        1.1498306555
 H          3.1863228895       -2.7296610954       -0.0741674224
 H          1.6227223896       -3.3868797718       -2.4132335093
 H          2.4907451512       -2.0046626951       -2.4827770852
 H         -2.1677289557       -2.1992683440        0.8406996494
 H         -4.1769991296       -0.1624431114        1.5475843376
 H         -3.2976917837       -0.5415640118        3.8444417916
 H         -1.9743900665       -1.5107863628        3.1965996548
 H         -3.6420732382       -2.1070183449        3.0902524059
 H         -3.2819408560        1.2864105425       -0.0165369298
 H         -1.4518355668        3.2929295888        0.9817567522
 H         -1.2744684985        3.8867780615       -1.4435722729
 H         -2.9671157259        3.6299878865       -1.0012536992
 H         -2.0813032398        2.3709592071       -1.8764602682
 C          2.0160693999        1.9210229041        0.6867736942
 C          3.1318183942        2.5442920480        0.1161886162
 C          2.1509458416        0.7401105973        1.3999249037
 C          4.3850945187        1.9504370865        0.2792188278
 C          4.5219240605        0.7741427433        0.9874319749
 C          3.4050971568        0.1726415176        1.5501255161
 H          1.2706957999        0.2957581959        1.8400574956
 H          5.4959141641        0.3253202613        1.1088032928
 H          3.5105979530       -0.7411642891        2.1143550483
 H          5.2367179440        2.4433223019       -0.1654246591
 C          3.0048081912        3.7944334984       -0.6437693635
 O          3.9126533467        4.3611643390       -1.1958080614
 H          1.9744224179        4.1953786897       -0.6755601379
