  56
        -94.14921723
 C         -2.3476290299       -2.2828324082       -1.6503080807
 C         -2.8587177623       -2.1470325371       -3.0742158627
 C         -3.0494380914       -1.2915657419       -0.7047005009
 O         -3.7408310765       -0.3674430303       -1.1017735042
 O         -0.5081768537       -3.1249348868        0.3193137215
 O          2.0904298818       -4.2387103976        0.0175455306
 N         -0.9191485015       -2.0240590166       -1.6050930932
 C         -0.1151976002       -2.4594616876       -0.6347387551
 C          1.3486858053       -2.0736305367       -0.8325465515
 C          2.2314497574       -2.8500319188        0.1659815708
 N          1.6962655435       -2.2957192462       -2.2298187214
 N         -2.8085294835       -1.5497286555        0.5882456671
 C         -3.1741823455       -0.6274432585        1.6536033278
 C         -3.0379316205       -1.3141261318        3.0004740409
 C         -2.2160148885        0.5650560791        1.5225189346
 O         -1.1702492069        0.6605903764        2.1369764027
 N         -2.6111648167        1.4751421372        0.6100045648
 O         -0.1232471971        0.7822088330       -0.5609416730
 O          0.6773137017        2.5418784760        0.5908102572
 C         -1.6565831701        2.4882787942        0.1974736223
 C         -0.2968637340        1.8075856523        0.0439233814
 C         -2.0857072596        3.1073582903       -1.1258014781
 H         -2.5104442922       -3.2984473233       -1.2675421206
 H         -2.3066672902       -2.8058781267       -3.7390487409
 H         -2.7474608640       -1.1184762805       -3.4084291154
 H         -3.9138184947       -2.4027075038       -3.1122643458
 H          1.1807505736       -4.4513202840        0.2713284643
 H         -0.5129690587       -1.4280222565       -2.3107615794
 H          1.4238311516       -1.0008581184       -0.6220517963
 H          1.9757892118       -2.5369477537        1.1861041309
 H          3.2848463307       -2.6227942082       -0.0216317151
 H          1.7803561372       -3.2968635769       -2.3888148934
 H          2.6021422747       -1.8853848541       -2.4305760336
 H         -2.1042856113       -2.2525655512        0.8117434649
 H         -4.2014180652       -0.2904240572        1.4746677662
 H         -3.6354519801       -2.2214733921        3.0245692431
 H         -3.3691075784       -0.6470898165        3.7915331345
 H         -1.9943712963       -1.5643376798        3.1759583861
 H         -3.3180344786        1.1897111375       -0.0653661793
 H         -1.5697449901        3.2493507669        0.9822512233
 H         -1.3763510786        3.8707681001       -1.4346448790
 H         -3.0668927017        3.5624688731       -1.0179021465
 H         -2.1345459666        2.3371151632       -1.8924369687
 C          1.9383972909        1.9737126701        0.7182362961
 C          3.0445130180        2.6011666447        0.1341560433
 C          2.0912204891        0.8137116766        1.4614825596
 C          4.3074431265        2.0337089810        0.3159861698
 C          4.4625075837        0.8789465855        1.0552130742
 C          3.3546212157        0.2725982304        1.6302591963
 H          1.2167373070        0.3642151802        1.9080494136
 H          5.4438313578        0.4507361577        1.1911110336
 H          3.4743027658       -0.6244503307        2.2180249159
 H          5.1516186023        2.5289962308       -0.1400329192
 C          2.8976531255        3.8278816262       -0.6597331745
 O          3.7970821553        4.3959273016       -1.2240078252
 H          1.8600858797        4.2084381343       -0.7063971971
