  56
        -94.14921260
 C         -2.4714564094       -2.5248763821       -1.0963313694
 C         -2.9340673201       -2.7442496577       -2.5263442279
 C         -3.1234864670       -1.2740365133       -0.4802637753
 O         -3.7361905438       -0.4490503098       -1.1386947472
 O         -0.7486686768       -2.9194354101        1.1061854336
 O          1.7702557780       -4.2266677680        1.2379714206
 N         -1.0296351462       -2.3524864641       -1.0580459626
 C         -0.2841434010       -2.5616149431        0.0274608425
 C          1.2082724118       -2.3368757742       -0.2021117564
 C          2.0066740298       -2.8621328772        1.0086837971
 N          1.5741638748       -2.9569615550       -1.4687676574
 N         -2.9325040533       -1.1890657107        0.8436984945
 C         -3.2498149747        0.0098359615        1.6059939508
 C         -3.1913564130       -0.2923275264        3.0923836831
 C         -2.2030650621        1.0554716253        1.1959378090
 O         -1.1636533964        1.2426134733        1.8003074734
 N         -2.5118998934        1.7101055627        0.0593614088
 O         -0.0259702441        0.5966764071       -0.7683476217
 O          0.8323293773        2.5581676544       -0.0710516117
 C         -1.4800646258        2.5162687748       -0.5677314943
 C         -0.1610525240        1.7513965757       -0.4587133923
 C         -1.8219248522        2.7620140510       -2.0311009638
 H         -2.7170220888       -3.3883326430       -0.4649870739
 H         -2.4140790881       -3.5905639612       -2.9670758392
 H         -2.7401345847       -1.8520488168       -3.1165909832
 H         -4.0035559514       -2.9339696620       -2.5418552290
 H          0.8411304864       -4.3047773893        1.4983892592
 H         -0.5627828058       -1.9986607161       -1.8796730106
 H          1.3552592649       -1.2545227524       -0.2900794063
 H          1.7480134864       -2.2656745135        1.8927474704
 H          3.0781648351       -2.7612978273        0.8132197167
 H          1.5888479029       -3.9664015530       -1.3443798678
 H          2.5125405899       -2.6761230571       -1.7330792285
 H         -2.2877878637       -1.8500778252        1.2766196222
 H         -4.2453488917        0.3530615368        1.3028654619
 H         -3.8549694403       -1.1173829544        3.3369196481
 H         -3.4875771408        0.5850090958        3.6606781009
 H         -2.1728602861       -0.5538319760        3.3694043054
 H         -3.2261193334        1.3036672751       -0.5419879091
 H         -1.3719731969        3.4609317950       -0.0210823050
 H         -1.8930102181        1.8116608867       -2.5556528971
 H         -1.0544519274        3.3704374958       -2.5024600519
 H         -2.7749554374        3.2795338472       -2.1045971839
 C          2.0571465645        1.9944811766        0.2586197768
 C          3.2185969988        2.4502413891       -0.3760170710
 C          2.1230663216        1.0217519764        1.2439165435
 C          4.4458811517        1.9018333855        0.0018567548
 C          4.5137261463        0.9305885184        0.9796248952
 C          3.3525440369        0.4949406719        1.6021758662
 H          1.2094743774        0.7077077170        1.7262079840
 H          5.4680434104        0.5147024113        1.2644782978
 H          3.4036186002       -0.2558157585        2.3756941421
 H          5.3330829288        2.2644352045       -0.4954363920
 C          3.1654617980        3.4808188911       -1.4207958384
 O          4.1171260960        3.8899841403       -2.0348997075
 H          2.1483272378        3.8707305575       -1.6125958008
