  56
        -94.14921229
 C         -2.4817100875       -2.5319364326       -1.0897889911
 C         -2.9519811512       -2.7616621595       -2.5156511882
 C         -3.1281550072       -1.2750859281       -0.4800239656
 O         -3.7374647078       -0.4507679812       -1.1424481494
 O         -0.7497638569       -2.9098225019        1.1080791538
 O          1.7693790853       -4.2170098117        1.2426102745
 N         -1.0394322873       -2.3614908581       -1.0597594517
 C         -0.2894146699       -2.5620366041        0.0243539846
 C          1.2022282372       -2.3413919995       -0.2139141869
 C          2.0053008471       -2.8548970297        0.9987470315
 N          1.5618138070       -2.9749999822       -1.4757569685
 N         -2.9363195105       -1.1842595202        0.8433972598
 C         -3.2519571077        0.0184889431        1.6001696454
 C         -3.1974720909       -0.2780305384        3.0878825864
 C         -2.2023744952        1.0607312061        1.1888074010
 O         -1.1648900753        1.2495464663        1.7958870339
 N         -2.5068832384        1.7111620226        0.0486618730
 O         -0.0192976936        0.5954379611       -0.7688098489
 O          0.8381606490        2.5577987521       -0.0729430924
 C         -1.4728753479        2.5161304543       -0.5763471209
 C         -0.1545143263        1.7508985341       -0.4619919097
 C         -1.8099464629        2.7606495330       -2.0409853582
 H         -2.7256220785       -3.3900193646       -0.4505191481
 H         -2.7616392004       -1.8736990111       -3.1134149530
 H         -4.0214713909       -2.9518766474       -2.5239288054
 H         -2.4342325034       -3.6110808718       -2.9530464174
 H          0.8412890884       -4.2920910518        1.5075509270
 H         -0.5755211951       -2.0178170806       -1.8873164631
 H          1.3499462776       -1.2601710256       -0.3134509377
 H          1.7502125212       -2.2494945099        1.8777095069
 H          3.0760400170       -2.7562148687        0.7981354497
 H          2.4994627215       -2.6982454566       -1.7469103209
 H          1.5758168067       -3.9831229791       -1.3409205938
 H         -2.2913638682       -1.8435080041        1.2787166926
 H         -4.2460734583        0.3627350377        1.2934885520
 H         -3.8638883030       -1.1003026675        3.3341483302
 H         -3.4925674077        0.6023119489        3.6520827420
 H         -2.1803080824       -0.5412036171        3.3682136624
 H         -3.2195123916        1.3033960238       -0.5536380068
 H         -1.3661960479        3.4613242820       -0.0303267975
 H         -1.8786096273        1.8099397964       -2.5651898429
 H         -1.0412159071        3.3692623674       -2.5100583957
 H         -2.7630306452        3.2775678619       -2.1180350548
 C          2.0614979677        1.9942368954        0.2624746176
 C          3.2255963143        2.4489890991       -0.3680563272
 C          2.1233122430        1.0230165183        1.2495148354
 C          4.4513409268        1.9013924677        0.0159891297
 C          4.5151296902        0.9318824962        0.9957336867
 C          3.3513202163        0.4970330273        1.6139260126
 H          1.2077156157        0.7095861991        1.7283650278
 H          5.4682738519        0.5166675429        1.2854493303
 H          3.3993228725       -0.2522555240        2.3890643863
 H          5.3405950291        2.2631622237       -0.4782363167
 C          3.1768508011        3.4775958496       -1.4149817566
 O          4.1310399884        3.8856836036       -2.0257898925
 H          2.1605750028        3.8674786377       -1.6114373446
