  56
        -94.14920565
 C         -2.5123052606       -2.5163442166       -1.0902971602
 C         -2.9869655611       -2.7444403918       -2.5149382444
 C         -3.1441753301       -1.2511743565       -0.4824010858
 O         -3.7429623257       -0.4203127002       -1.1462388165
 O         -0.7810561214       -2.9042755655        1.1064576736
 O          1.7276221509       -4.2212000269        1.2613307246
 N         -1.0682829457       -2.3602039464       -1.0627317129
 C         -0.3186452445       -2.5651304024        0.0208925628
 C          1.1747962460       -2.3613683352       -0.2209342544
 C          1.9741142510       -2.8645682876        0.9984645653
 N          1.5270638436       -3.0170321430       -1.4736546116
 N         -2.9518939486       -1.1612412261        0.8410179102
 C         -3.2522522649        0.0462767322        1.5963289406
 C         -3.2007796637       -0.2492218394        3.0843737024
 C         -2.1905510338        1.0758061407        1.1838604000
 O         -1.1512745120        1.2539318100        1.7911315245
 N         -2.4875443819        1.7286094248        0.0431533501
 O         -0.0077374493        0.5929035597       -0.7731118335
 O          0.8645096258        2.5480970239       -0.0747327757
 C         -1.4458783351        2.5254043198       -0.5794259203
 C         -0.1340001838        1.7490591044       -0.4649814396
 C         -1.7791961724        2.7763050444       -2.0438208688
 H         -2.7640157145       -3.3704117258       -0.4487040861
 H         -2.7876345877       -1.8601027852       -3.1151420845
 H         -4.0585119989       -2.9228133006       -2.5213626519
 H         -2.4792500054       -3.6006446368       -2.9508912341
 H          0.7984563575       -4.2852074142        1.5257228028
 H         -0.6023566154       -2.0261931943       -1.8930300325
 H          1.3326014518       -1.2831752071       -0.3363955509
 H          1.7240444950       -2.2449251377        1.8689296347
 H          3.0455220095       -2.7769597517        0.7962520625
 H          2.4675391076       -2.7542584521       -1.7489590782
 H          1.5306723010       -4.0231762556       -1.3240443734
 H         -2.3136987711       -1.8268435009        1.2767181785
 H         -4.2422163003        0.4023728170        1.2897837457
 H         -3.8772368000       -1.0628769950        3.3318998905
 H         -3.4845644275        0.6353567619        3.6477488147
 H         -2.1868113572       -0.5246892481        3.3644401420
 H         -3.2037505180        1.3281202910       -0.5597879800
 H         -1.3315769901        3.4684918709       -0.0312314296
 H         -2.7273583931        3.3022370642       -2.1205725870
 H         -1.8560750484        1.8275902938       -2.5704751410
 H         -1.0044148148        3.3789799170       -2.5105964131
 C          2.0841066287        1.9772183884        0.2613153500
 C          3.2520383669        2.4324595588       -0.3618813621
 C          2.1393539470        1.0000057261        1.2427941627
 C          4.4747743029        1.8795115418        0.0240134398
 C          4.5319820178        0.9040512642        0.9982334854
 C          3.3644669339        0.4684864696        1.6088822799
 H          1.2211376160        0.6865772758        1.7165606975
 H          5.4828480030        0.4847916240        1.2895943920
 H          3.4074200010       -0.2855366388        2.3797231942
 H          5.3670296880        2.2421078825       -0.4641644834
 C          3.2101779940        3.4671284610       -1.4030275509
 O          4.1685015402        3.8791209550       -2.0049333007
 H          2.1951263526        3.8574841825       -1.6046054272
