  56
        -94.14918886
 C         -1.7856680418        0.2753049765       -2.2313980466
 C         -0.5162260593       -0.0479509480       -3.0169065573
 C         -1.6161348767        1.6258867368       -1.5152571999
 O         -0.9190544842        2.5162638017       -1.9573774630
 O         -0.3139058619       -0.5869663264        0.0738700099
 O         -2.8540001747       -0.1795699923        2.0978418915
 N         -2.1268171159       -0.7646072216       -1.2822240259
 C         -1.4035362730       -1.0679204677       -0.1921769750
 C         -2.1169854360       -2.0417735092        0.7494840445
 C         -2.1262193493       -1.3906958437        2.1487231782
 N         -3.4641920004       -2.3257318469        0.2650127936
 N         -2.3556432110        1.7758080644       -0.3939010757
 C         -2.0858171829        2.8751010250        0.5212088157
 C         -3.3082645875        3.1768337682        1.3717545234
 C         -0.8802433190        2.4069527136        1.3502576467
 O         -1.0038751432        1.8365009084        2.4229002189
 N          0.2991911017        2.6311018719        0.7529358775
 O          1.9131766566        1.3090699296       -1.0747521900
 O          2.4921545704       -0.0806082717        0.6035371843
 C          1.5147767232        1.9865691304        1.2009516678
 C          1.9780187379        1.0459433472        0.0913273367
 C          2.6129655951        3.0149752522        1.4765989432
 H         -2.6306094230        0.3771140706       -2.9225732210
 H         -0.2999655977        0.7682296031       -3.6992666882
 H         -0.6415561619       -0.9727630455       -3.5740631817
 H          0.3213868600       -0.1483521719       -2.3326572761
 H         -2.2598418057        0.5465393683        2.3648690432
 H         -2.9814573521       -1.2999582914       -1.3798697280
 H         -1.5309689519       -2.9639263693        0.7897095463
 H         -1.0990032662       -1.2262212351        2.4744665341
 H         -2.6200189751       -2.0669683221        2.8589062720
 H         -4.0849901898       -1.6032358749        0.6242139477
 H         -3.7895182396       -3.2091127153        0.6408610097
 H         -2.8009099754        0.9716157563        0.0306673146
 H         -1.8043974227        3.7415027231       -0.0857981299
 H         -4.1381692457        3.4748853280        0.7364491730
 H         -3.0832290609        3.9837377638        2.0636223306
 H         -3.5972958428        2.2999584261        1.9452995492
 H          0.3038766447        2.9334047143       -0.2172156657
 H          1.2807872761        1.4129523010        2.1018685229
 H          3.5137573369        2.5158709118        1.8238137260
 H          2.2786497124        3.7125246910        2.2399895856
 H          2.8390795968        3.5664719488        0.5667721496
 C          2.8087849053       -1.1097983391       -0.2699554703
 C          2.2085573276       -2.3562579852       -0.0568487694
 C          3.6698481326       -0.9184024402       -1.3381128457
 C          2.4835776455       -3.3968579656       -0.9424061177
 C          3.3434529950       -3.2078619568       -2.0061226292
 C          3.9374502790       -1.9704248157       -2.1991908671
 H          4.1185789597        0.0489952315       -1.4991059212
 H          3.5506081747       -4.0196569792       -2.6866700763
 H          4.6096417923       -1.8163279072       -3.0296513567
 H          2.0052653806       -4.3491573374       -0.7680488440
 C          1.2945831378       -2.5659172776        1.0723571094
 O          0.5694752111       -3.5237874305        1.1951659596
 H          1.3357227156       -1.7754696495        1.8383782698
