  56
        -94.14917941
 C         -2.6236573370       -2.4458379936       -1.0832363848
 C         -3.1170063941       -2.6713519830       -2.5019007518
 C         -3.1987908925       -1.1484499203       -0.4869496865
 O         -3.7639626705       -0.2997910009       -1.1576416733
 O         -0.8954357068       -2.8744515171        1.1086415203
 O          1.5545683317       -4.3091765432        1.2459250339
 N         -1.1742705880       -2.3487498254       -1.0662598348
 C         -0.4265631745       -2.5699818938        0.0156576402
 C          1.0722820802       -2.4313678350       -0.2380780975
 C          1.8582672833       -2.9652431163        0.9769489824
 N          1.3868076935       -3.1049435521       -1.4914068535
 N         -2.9977634960       -1.0527117416        0.8347654445
 C         -3.2462479638        0.1740652263        1.5776405859
 C         -3.2047332179       -0.1073561694        3.0687277702
 C         -2.1433034792        1.1539682594        1.1533487486
 O         -1.0965117088        1.2947737607        1.7577630495
 N         -2.4129335334        1.8065904226        0.0062603931
 O          0.0415463712        0.5813097869       -0.7840931736
 O          0.9604088331        2.5128237121       -0.0768861236
 C         -1.3402786001        2.5569602005       -0.6217605717
 C         -0.0548659289        1.7413277815       -0.4795773220
 C         -1.6514753377        2.7876753066       -2.0943241455
 H         -2.9061918397       -3.2809812936       -0.4296495149
 H         -2.8880472976       -1.8022424666       -3.1136645604
 H         -4.1946741677       -2.8081278959       -2.4988970176
 H         -2.6461109237       -3.5515521087       -2.9313605921
 H          0.6264351352       -4.3318374354        1.5200738665
 H         -0.6991388782       -2.0503534143       -1.9049614547
 H          1.2749825784       -1.3611958900       -0.3579901300
 H          1.6423365575       -2.3329357812        1.8473846905
 H          2.9309027858       -2.9254893444        0.7664852735
 H          2.3349785121       -2.8820638163       -1.7752875495
 H          1.3501199117       -4.1099182167       -1.3383288353
 H         -2.3849862861       -1.7388646629        1.2752329783
 H         -4.2209818747        0.5677354616        1.2682802507
 H         -2.2026444749       -0.4217457544        3.3505472307
 H         -3.9140908955       -0.8894071156        3.3258107018
 H         -3.4505041121        0.7942895328        3.6228402824
 H         -3.1471689761        1.4333187616       -0.5922192415
 H         -1.2008383568        3.5070646435       -0.0916937226
 H         -0.8543106969        3.3571278250       -2.5651273751
 H         -2.5826714534        3.3398242152       -2.1919268765
 H         -1.7511864248        1.8309231069       -2.6022655953
 C          2.1605272191        1.9122048461        0.2747678816
 C          3.3499461191        2.3642295538       -0.3094562695
 C          2.1782599452        0.9097807190        1.2319352810
 C          4.5544175804        1.7803243951        0.0879496588
 C          4.5737333395        0.7777287106        1.0357124552
 C          3.3858324455        0.3470817406        1.6093719296
 H          1.2455606279        0.6014031676        1.6796607074
 H          5.5106662297        0.3338770293        1.3356474217
 H          3.3989181024       -0.4278086003        2.3603946319
 H          5.4632249715        2.1409942616       -0.3701934741
 C          3.3491830446        3.4284125320       -1.3212142488
 O          4.3274303265        3.8386038314       -1.8915035903
 H          2.3461747324        3.8442474558       -1.5317414210
