  56
        -94.14912029
 C         -3.3896477330        0.7984520045       -0.4014886209
 C         -3.8922173083        1.2938875400       -1.7462841473
 C         -2.6685379936        1.9087238989        0.3759646227
 O         -2.2574517245        2.9343444418       -0.1379003659
 O         -2.6902011778       -1.1911812240        1.4502502027
 O          1.0019354314       -1.3142645836        0.9846466050
 N         -2.4233848556       -0.2759775880       -0.5977795352
 C         -2.1058663211       -1.1517490996        0.3737081038
 C         -1.0609593348       -2.1997619343       -0.0050249840
 C          0.0241876083       -2.3155653598        1.0850496912
 N         -1.6975723084       -3.5027684814       -0.1572010957
 N         -2.4933120575        1.6022311808        1.6736239304
 C         -1.5389309101        2.3303865346        2.4966127256
 C         -1.7601921159        2.0072302252        3.9633184867
 C         -0.1560509086        1.8649528034        2.0144866213
 O          0.4198982146        0.9139797873        2.5145956446
 N          0.3199174037        2.5661424686        0.9695210178
 O          0.1049701241        0.7845864695       -1.1274315725
 O          2.3242118651        0.4164893572       -1.0762865812
 C          1.5215049970        2.1595146099        0.2742818353
 C          1.2093002924        1.0453035027       -0.7231460402
 C          2.1491451180        3.3474230176       -0.4486973526
 H         -4.2051542676        0.3955383197        0.2092998198
 H         -4.6658861908        2.0416924344       -1.5968050598
 H         -4.2981828695        0.4705291496       -2.3280834545
 H         -3.0722839511        1.7554723294       -2.2911538445
 H          0.8194992170       -0.5916481564        1.6142829986
 H         -1.7447459126       -0.1133126148       -1.3290555616
 H         -0.5785551100       -1.9379595411       -0.9521741775
 H          0.5241135156       -3.2787672588        0.9340061366
 H         -0.4574558691       -2.3171563559        2.0679695822
 H         -2.4251561824       -3.4551959269       -0.8636184148
 H         -2.1420644412       -3.7566092789        0.7205665595
 H         -2.7216726135        0.6567101477        1.9764561692
 H         -1.6663709520        3.3990312094        2.2947660049
 H         -1.5450333252        0.9559915021        4.1399294406
 H         -2.7886524592        2.2173475647        4.2440952640
 H         -1.0922589844        2.6031293822        4.5790431586
 H         -0.3375167911        3.1462891058        0.4549566009
 H          2.2182886010        1.7426066001        1.0103259512
 H          1.4582302583        3.7434982322       -1.1905461641
 H          3.0641287273        3.0335458960       -0.9426913566
 H          2.3845297677        4.1311249013        0.2664345961
 C          2.2305799814       -0.7939537547       -1.7411884346
 C          2.8068451730       -1.9118876227       -1.1247037112
 C          1.5567812779       -0.9154993031       -2.9449912285
 C          2.6773794170       -3.1512308077       -1.7445425821
 C          2.0119070630       -3.2753194830       -2.9497779736
 C          1.4553963494       -2.1578926575       -3.5500085216
 H          1.1123301350       -0.0436206833       -3.3999204658
 H          1.9180490573       -4.2428419245       -3.4184358610
 H          0.9306793683       -2.2512043555       -4.4888787879
 H          3.1069210766       -4.0208278843       -1.2694330301
 C          3.5009840816       -1.7953251267        0.1723373620
 O          3.9696448993       -0.7941120456        0.6405277900
 H          3.5909716578       -2.7693776694        0.6922735262
