  56
        -94.15294384
 C         -2.3796207551        0.4840587808       -2.2244389739
 C         -1.9387821307        0.3871129378       -3.6745848365
 C         -1.9948763262        1.8399679421       -1.6165308172
 O         -1.2734516351        2.6500056707       -2.1743545044
 O         -3.3167439984       -0.6283857580        0.1574449581
 O          0.1353029260       -0.5641306599        1.4806450136
 N         -1.7309427510       -0.5583137557       -1.4401142914
 C         -2.2491997275       -1.0230875437       -0.2957499980
 C         -1.4327117381       -2.0802822188        0.4385280747
 C         -0.9364139798       -1.4356825584        1.7556908603
 N         -2.2776486248       -3.2406654340        0.6364001520
 N         -2.4997858624        2.0217078685       -0.3849064380
 C         -2.0173066184        3.0712998937        0.5012366975
 C         -2.9692304373        3.2484163069        1.6702160096
 C         -0.6243334477        2.6111929965        0.9604942774
 O         -0.4332483801        2.0378523787        2.0212755397
 N          0.3417355928        2.8561405671        0.0580899549
 O          0.9341496649        0.4589460628       -1.2298794802
 O          2.6094937710        0.1250015814        0.2340763501
 C          1.6623155895        2.2818004424        0.1868655957
 C          1.6675168396        0.8542711447       -0.3636462558
 C          2.6787531541        3.1198518886       -0.5849007010
 H         -3.4611834762        0.3382805017       -2.1217385320
 H         -2.4467394583        1.1443254963       -4.2649432731
 H         -2.1691843497       -0.5962356725       -4.0750393561
 H         -0.8680972184        0.5647864983       -3.7378274282
 H         -0.0054461104        0.2886217339        1.9344637852
 H         -0.7572079174       -0.7251780909       -1.6534441265
 H         -0.5564945548       -2.3757427792       -0.1496106205
 H         -0.5800890250       -2.2268703846        2.4351840260
 H         -1.7683357366       -0.9128468560        2.2371723876
 H         -1.8565241457       -3.8713546319        1.3104917332
 H         -3.1760916409       -2.9385563046        1.0019481522
 H         -3.0319126264        1.2624195646        0.0356101561
 H         -1.9244827987        3.9932048443       -0.0837555848
 H         -2.6327187852        4.0661531851        2.3014685522
 H         -2.9895985119        2.3401810275        2.2677808608
 H         -3.9714525048        3.4635685476        1.3099913433
 H          0.0470317390        3.1107545018       -0.8844074763
 H          1.9159876420        2.2411050594        1.2509760077
 H          2.4157823125        3.1397858116       -1.6405050051
 H          3.6736607598        2.6973523351       -0.4731354833
 H          2.6818753770        4.1377499257       -0.2041380271
 C          2.6669253061       -1.2341315036       -0.0731041744
 C          2.3831904801       -2.1545751515        0.9380981846
 C          2.9634029710       -1.6593008026       -1.3565068069
 C          2.3975057298       -3.5117574151        0.6276881026
 C          2.7004463148       -3.9418822890       -0.6502281799
 C          2.9871618857       -3.0156772759       -1.6398394145
 H          3.1664984904       -0.9312470601       -2.1270919280
 H          2.7081519296       -4.9967076830       -0.8784588378
 H          3.2213656661       -3.3450732702       -2.6407140939
 H          2.1630355844       -4.2132330243        1.4143480306
 C          2.0492357489       -1.7154992565        2.3099301238
 O          1.5184212408       -2.4275471837        3.1277539193
 H          2.4039020597       -0.7031876890        2.5630363088
