  56
        -94.14910268
 C         -0.7952432175       -3.1797556662       -1.0963500082
 C         -1.2143636141       -3.6480162046       -2.4797649454
 C         -1.9571982634       -2.4803238356       -0.3691280332
 O         -2.9883893395       -2.1490644650       -0.9362274260
 O          1.0866679195       -2.5467427730        0.8990376719
 O          3.9174107779       -2.4482791823        0.5964143478
 N          0.3209090773       -2.2583816036       -1.1993342771
 C          1.1779306077       -2.0200989552       -0.2041507428
 C          2.2980418238       -1.0543455346       -0.5826630433
 C          3.4370342136       -1.1348290504        0.4546171663
 N          2.7182609963       -1.3500183998       -1.9484093635
 N         -1.7165277862       -2.2798726548        0.9310851541
 C         -2.6192442495       -1.5468840530        1.8068446089
 C         -2.2672105479       -1.8300755695        3.2565343855
 C         -2.4711176193       -0.0538456647        1.4761665243
 O         -1.8469383578        0.7328529752        2.1584352200
 N         -3.0856895788        0.3006292588        0.3258754577
 O         -0.5519152189        0.6710079185       -0.7655289561
 O         -0.7553433039        2.8589119029       -0.2891388134
 C         -2.7408617978        1.5752626504       -0.2643588547
 C         -1.2258267969        1.6187316322       -0.4611528353
 C         -3.4404737830        1.7466947289       -1.6069205360
 H         -0.4660712764       -4.0250412634       -0.4780048460
 H         -2.0064813552       -4.3864388062       -2.3941790937
 H         -0.3693895306       -4.0884378045       -3.0023196490
 H         -1.5967079209       -2.8065407837       -3.0522654841
 H          3.2091881551       -2.9548176947        1.0178485548
 H          0.4419461732       -1.7332320023       -2.0523113548
 H          1.8653344652       -0.0475849928       -0.5677313187
 H          3.0829634764       -0.7354187817        1.4115995211
 H          4.2836855404       -0.5330487637        0.1106361759
 H          3.3539456705       -0.6289326953       -2.2740663824
 H          3.2409464447       -2.2228403409       -1.9397956432
 H         -0.7757016361       -2.4597202825        1.2802599525
 H         -3.6432662804       -1.8610744941        1.5709952872
 H         -2.9712758516       -1.3261358770        3.9126925782
 H         -1.2704842760       -1.4504305133        3.4684859991
 H         -2.2965604656       -2.8986169243        3.4523929009
 H         -3.3790187148       -0.4488868378       -0.3011485795
 H         -3.0146112735        2.3799290071        0.4277711268
 H         -3.1352515584        0.9538887837       -2.2865859789
 H         -3.1880982573        2.7091794918       -2.0441079461
 H         -4.5167897363        1.6941497375       -1.4661682643
 C          0.6107078744        3.0793229889       -0.4463654826
 C          1.5516505033        2.5288645166        0.4285939841
 C          1.0145956225        3.8794453762       -1.5042689255
 C          2.9038918309        2.7918830518        0.1993347179
 C          3.3078550815        3.5870490588       -0.8532826248
 C          2.3596157967        4.1389454877       -1.7016301003
 H          0.2663985321        4.2917369555       -2.1636853721
 H          4.3570530312        3.7820436811       -1.0140155306
 H          2.6658487363        4.7665739050       -2.5246166904
 H          3.6182844608        2.3543944725        0.8809717300
 C          1.1777478512        1.7112311203        1.6023895588
 O          1.9852550225        1.1130343626        2.2682940245
 H          0.1054726173        1.6921470138        1.8498263942
