  56
        -94.14908367
 C          1.6820469249       -2.0314352618        1.6281090231
 C          2.6264004909       -3.1447259717        2.0634548958
 C          0.7954520745       -2.5371335511        0.4808020048
 O          1.2516943996       -2.7759460946       -0.6241648990
 O          0.7247106466        0.0467107342        0.0274931455
 O          3.1857542213        3.3002407551       -0.9313323392
 N          2.4438975871       -0.9033378332        1.1320775358
 C          1.9071621606        0.0254766082        0.3377718902
 C          2.9198008640        1.0576623720       -0.1503872341
 C          2.2155312215        2.3848669839       -0.4604010591
 N          4.0126129559        1.1753713640        0.8051647138
 N         -0.4836874008       -2.7607956838        0.8148341509
 C         -1.4586262890       -3.2714702704       -0.1323721663
 C         -2.5564139664       -4.0166093203        0.6111052702
 C         -2.0593830967       -2.1379367106       -0.9949100871
 O         -3.2420436285       -1.8658072253       -0.9913380605
 N         -1.1486922482       -1.5307231171       -1.7758148449
 O         -0.3197127411        1.6938737960       -2.4198712395
 O         -1.7830123993        1.0365806609       -0.8336261592
 C         -1.4905718366       -0.4240628920       -2.6438421334
 C         -1.1022869605        0.8984599561       -1.9785685520
 C         -0.8069277221       -0.5692154245       -3.9956580490
 H          1.0538739955       -1.7054323894        2.4667175478
 H          3.1975937515       -3.4942049188        1.2063511512
 H          2.0579621893       -3.9781371526        2.4678395579
 H          3.3097189436       -2.7831455947        2.8284396848
 H          2.7377140001        4.0039857783       -1.4082443089
 H          3.4367389298       -0.8397393167        1.3115590433
 H          3.3458950390        0.6733252632       -1.0860053574
 H          1.7437070240        2.7701738137        0.4578641312
 H          1.4359772242        2.2072934085       -1.2046567784
 H          3.6722387162        1.6306916142        1.6486169185
 H          4.7185107651        1.7877828029        0.4083198864
 H         -0.8361728420       -2.4092232992        1.6938025258
 H         -0.9170217404       -3.9443957619       -0.8091747105
 H         -3.0940581873       -3.3314785918        1.2624240005
 H         -2.1339120999       -4.8232766004        1.2046748995
 H         -3.2656913248       -4.4281758626       -0.1007338222
 H         -0.1665035427       -1.7556265241       -1.6632206300
 H         -2.5849241284       -0.4391490756       -2.7370139101
 H         -1.1025619898       -1.5038046681       -4.4639374141
 H          0.2721842219       -0.5609853637       -3.8637883125
 H         -1.0805116956        0.2590482707       -4.6428915180
 C         -1.4307583643        2.0025225352        0.0841143312
 C         -1.2144630001        1.5787391817        1.4041070484
 C         -1.2783148373        3.3370536953       -0.2547373269
 C         -0.8272937560        2.5114833996        2.3625750884
 C         -0.6793249306        3.8429882697        2.0242612044
 C         -0.9086771339        4.2515301464        0.7194143940
 H         -1.4413138318        3.6549215764       -1.2722831978
 H         -0.3838933679        4.5632405085        2.7722743207
 H         -0.7946324809        5.2917167719        0.4527021421
 H         -0.6534305656        2.1660604468        3.3709336444
 C         -1.3644881533        0.1591100427        1.7264784520
 O         -0.9304590314       -0.3923811207        2.7124452764
 H         -1.9438450595       -0.3958580298        0.9726927547
