  56
        -94.14907933
 C         -0.4064615343        1.5605516852       -2.6998449921
 C          0.1227881575        1.0937116807       -4.0438585730
 C          0.7271922241        1.7979201741       -1.6845865224
 O          1.8254646745        1.2871028103       -1.7980183536
 O         -2.4002134256        1.9337402559       -0.7549257652
 O         -3.8744884726       -1.2820842430        1.4692590816
 N         -1.2554757790        0.5397459947       -2.1071767051
 C         -2.1201475356        0.8006036321       -1.1086176290
 C         -2.6847726669       -0.4673975096       -0.4852861635
 C         -3.6840677274       -0.1627153902        0.6410475712
 N         -3.1818693845       -1.3599270597       -1.5272640956
 N          0.3576459326        2.5941069216       -0.6600534104
 C          1.0712614812        2.5584240107        0.5995381119
 C          0.8597244033        3.8621491015        1.3608053203
 C          0.5532588043        1.3556872104        1.3878629972
 O         -0.3347050182        0.6436648053        0.9405198751
 N          1.0708314281        1.1138694415        2.5980300748
 O         -0.9257796646       -1.6698062825        2.2914729056
 O          1.1790369007       -1.3939883245        1.4697447033
 C          0.6036294774       -0.0710705049        3.3057909429
 C          0.1328537193       -1.0990555958        2.2636704618
 C          1.7208364499       -0.6560859251        4.1584627124
 H         -1.0055383857        2.4723234580       -2.8000899172
 H         -0.6992874805        0.8041908453       -4.6929077770
 H          0.7866578461        0.2450909001       -3.8980113742
 H          0.6867198708        1.8931534135       -4.5162230575
 H         -3.0231242864       -1.4967698575        1.8786810928
 H         -1.0263865770       -0.4256227508       -2.2903632230
 H         -1.8269164448       -0.9695607945       -0.0200612910
 H         -4.6653689580        0.0868998969        0.2269594467
 H         -3.3150085134        0.6987299486        1.2102664195
 H         -3.9644203590       -0.9201844333       -2.0045311826
 H         -3.5454632877       -2.1960269686       -1.0779891942
 H         -0.6421308882        2.7765852920       -0.5777453469
 H          2.1321088024        2.3891498289        0.3799361220
 H          1.1998257522        4.6974413425        0.7542376422
 H          1.4124924904        3.8600571585        2.2957758489
 H         -0.1979096282        3.9969531782        1.5767663331
 H          1.9495468407        1.5209868720        2.8746584281
 H         -0.2667953405        0.1932134833        3.9211756615
 H          1.3780336275       -1.5620776503        4.6511962391
 H          2.0242634418        0.0599655607        4.9191050118
 H          2.5731945739       -0.8955416006        3.5272412582
 C          1.0400005491       -1.8569790289        0.1859765023
 C          1.9810188983       -1.3793552742       -0.7444623019
 C          0.0468646686       -2.7422699023       -0.2094518365
 C          1.8888891373       -1.8123280056       -2.0658330347
 C          0.8791324019       -2.6658269393       -2.4657693771
 C         -0.0394108559       -3.1292082917       -1.5361636620
 H         -0.6581840310       -3.1144290349        0.5160867418
 H          0.8075699681       -2.9765819942       -3.4972800764
 H         -0.8292993151       -3.7977632447       -1.8416162997
 H          2.6110216587       -1.4430599701       -2.7786437705
 C          3.0266583437       -0.4082589510       -0.3860706165
 O          3.1451242431        0.1661245967        0.6698140800
 H          3.7572977585       -0.2507760326       -1.1983280074
