  56
        -94.14907921
 C         -3.0749121074        0.0885716023       -0.6701637385
 C         -3.8281702562        1.3426217804       -1.0756849695
 C         -2.4549190064        0.2168724638        0.7338497664
 O         -2.2329704816        1.2931379015        1.2557790138
 O         -1.7779310014       -2.3553703630       -1.1618682277
 O          1.9961927651       -2.4770868810       -2.9507801056
 N         -1.9581200832       -0.1456720269       -1.5711499041
 C         -1.3380898805       -1.3369254910       -1.6684886209
 C         -0.0434728370       -1.2519877446       -2.4634172660
 C          0.6416859507       -2.6196867630       -2.6038484551
 N         -0.2706510245       -0.5430127227       -3.7184950061
 N         -2.1626333340       -0.9764872849        1.2911081414
 C         -1.1778570863       -1.0785592366        2.3479732010
 C         -1.4177200896       -2.3393685701        3.1706915520
 C          0.2023674766       -1.0885029077        1.6914151425
 O          0.3222593837       -1.0466900333        0.4751405300
 N          1.2827098062       -1.1761602966        2.4763966088
 O          2.8443360914       -0.7181931109       -0.5536666024
 O          2.0072655051        0.8954571880        0.8163818005
 C          2.5888942029       -1.1247297065        1.8325209964
 C          2.4459033925       -0.3414166010        0.5170652265
 C          3.6043313517       -0.4486441252        2.7431439561
 H         -3.7205654576       -0.7957803515       -0.7063798172
 H         -4.7081548891        1.4630182254       -0.4500612542
 H         -4.1352593063        1.2782560642       -2.1161046511
 H         -3.1882936572        2.2109475020       -0.9389032068
 H          2.4370914072       -1.9951453592       -2.2353537818
 H         -1.4909724436        0.6598337684       -1.9598160455
 H          0.6251120197       -0.6238893083       -1.8608351057
 H          0.1766697965       -3.2020282699       -3.4047495184
 H          0.5249270099       -3.1662816275       -1.6604764859
 H         -0.9089729284       -1.0798613075       -4.2997629495
 H          0.6130262010       -0.4977962876       -4.2186082971
 H         -2.2004208270       -1.7803791027        0.6651911374
 H         -1.2536281898       -0.1757483234        2.9656173297
 H         -1.3226287648       -3.2184253593        2.5369739925
 H         -2.4217391918       -2.3174626672        3.5863551347
 H         -0.7028803355       -2.4134722834        3.9850921981
 H          1.2252588160       -0.9646457183        3.4594426949
 H          2.9063784342       -2.1437259219        1.5736516805
 H          3.2589922398        0.5513616990        2.9942589626
 H          4.5654895525       -0.3768872578        2.2409592441
 H          3.7310799136       -1.0270281374        3.6557355311
 C          1.3141062525        1.6805466745       -0.0696646682
 C          0.2781828086        2.4585669356        0.4789017507
 C          1.5880601233        1.7321223139       -1.4293560794
 C         -0.4645382506        3.2734401982       -0.3733651748
 C         -0.2144966471        3.2969532390       -1.7316694356
 C          0.8121824999        2.5267221690       -2.2563571083
 H          2.3956045534        1.1445884415       -1.8351908822
 H         -0.8116668437        3.9172704999       -2.3830442341
 H          1.0143858765        2.5426956509       -3.3160761182
 H         -1.2605284425        3.8680701064        0.0494507573
 C         -0.0779197373        2.4108527336        1.9056952158
 O          0.3694494752        1.6552204032        2.7350038505
 H         -0.8147151129        3.1833688413        2.1862946394
