  56
        -94.14907645
 C          1.3480392216        0.9353792320        1.7199478509
 C          2.0867329164        1.3055916967        3.0107727308
 C          2.1176794726       -0.1597702071        0.9799801574
 O          2.8079397324        0.0846143236        0.0064258386
 O         -0.9863712555        2.3607213486        1.0785797593
 O         -2.2168132721        4.2260241443       -0.4296845650
 N          1.2377749506        2.0769744673        0.8470967619
 C          0.0746628343        2.6567684321        0.5420786121
 C          0.1845811645        3.7348538099       -0.5378313243
 C         -0.9370829590        4.7834401254       -0.3560836829
 N          1.5261829985        4.2958905248       -0.5415894367
 N          2.0150318112       -1.3851000977        1.5198274770
 C          2.6584511218       -2.5519742892        0.9306265637
 C          2.9208801830       -3.6027938764        1.9952792667
 C          1.7234193897       -3.0870448399       -0.1744532245
 O          1.0703893821       -4.1006363176       -0.0536945834
 N          1.7005166472       -2.2888542348       -1.2603610312
 O         -1.7017192481       -1.8959701703       -2.3541328170
 O         -0.5896720107       -1.5259393126       -0.4319195133
 C          0.6554923318       -2.4157121545       -2.2480913930
 C         -0.6874714364       -1.9126663754       -1.7171477938
 C          1.0089541489       -1.6432337885       -3.5129573424
 H          0.3288092603        0.6004971361        1.9470616115
 H          3.0863807273        1.6629329812        2.7743933533
 H          2.1679021953        0.4434607976        3.6672937221
 H          1.5456025802        2.0929896226        3.5290441196
 H         -2.2255897094        3.5014154424        0.2220464383
 H          2.0436159836        2.3082984993        0.2780894362
 H          0.0324361397        3.2200266289       -1.4948131755
 H         -0.8725346388        5.5333370124       -1.1515099456
 H         -0.7878965844        5.2910945381        0.6125944248
 H          1.6588090647        4.8857579942        0.2745273276
 H          1.6636405276        4.8729369193       -1.3635330560
 H          1.3237068560       -1.5648742431        2.2310067684
 H          3.5917271087       -2.2045325328        0.4750706828
 H          3.4912601544       -3.1805168508        2.8188646204
 H          3.4789464038       -4.4276664569        1.5622992702
 H          1.9774176522       -3.9960874171        2.3667073949
 H          2.1721359684       -1.3916586510       -1.2134957440
 H          0.5220359876       -3.4833732923       -2.4666375112
 H          0.2158435327       -1.7644441364       -4.2449629349
 H          1.9435928059       -2.0110964519       -3.9273928215
 H          1.1065763371       -0.5851891299       -3.2797833165
 C         -1.7141821512       -0.9889914779        0.1725716104
 C         -2.3051701268        0.1855140120       -0.3083839205
 C         -2.2351107274       -1.6448380946        1.2760764665
 C         -3.4455473147        0.6667991473        0.3346860229
 C         -3.9603354841        0.0189245265        1.4392433746
 C         -3.3505370907       -1.1322166460        1.9150729822
 H         -1.7622986933       -2.5555897769        1.6117634888
 H         -4.8369695948        0.4082707706        1.9335443513
 H         -3.7506193293       -1.6408545693        2.7792438964
 H         -3.9069880568        1.5702791458       -0.0347012392
 C         -1.7236635174        0.9570157146       -1.4114322492
 O         -0.6109025729        0.8248519937       -1.8614608581
 H         -2.4003913815        1.7417030459       -1.7964560791
