  56
        -94.14907590
 C          1.3978413257        0.9110195396        1.7169868553
 C          2.1653127704        1.2698652206        2.9940648336
 C          2.1358888922       -0.1982120490        0.9659215575
 O          2.8182963717        0.0338405953       -0.0161836701
 O         -0.9282590101        2.3563255166        1.0900553425
 O         -2.1477244926        4.2500998004       -0.3927878585
 N          1.2921086465        2.0533260379        0.8445220710
 C          0.1317401208        2.6425268350        0.5463796364
 C          0.2435230040        3.7200593044       -0.5338506358
 C         -0.8582242528        4.7861522122       -0.3327413224
 N          1.5937130703        4.2594718557       -0.5576874191
 N          2.0154091042       -1.4219974361        1.5054781364
 C          2.6274811639       -2.6007800250        0.9068162314
 C          2.8830859190       -3.6577806320        1.9670309574
 C          1.6681439651       -3.1160177541       -0.1869458391
 O          0.9995564172       -4.1187565302       -0.0607352181
 N          1.6445391803       -2.3137808030       -1.2695822759
 O         -1.7602645838       -1.8707547036       -2.3369543190
 O         -0.6264003719       -1.5047989699       -0.4267576982
 C          0.5898802894       -2.4228194364       -2.2489894339
 C         -0.7408529663       -1.8979778985       -1.7086531043
 C          0.9465564612       -1.6549922729       -3.5159144151
 H          0.3769765218        0.5942429087        1.9617017919
 H          3.1672019273        1.6080313655        2.7396509887
 H          2.2418783130        0.4074335635        3.6507632561
 H          1.6481215426        2.0681191844        3.5201023964
 H         -2.1600804850        3.5212894154        0.2541939819
 H          2.0949562882        2.2752703554        0.2675543064
 H          0.0678973226        3.2096257753       -1.4891005260
 H         -0.7914165669        5.5390819753       -1.1251268258
 H         -0.6883218800        5.2861917075        0.6365139379
 H          1.7475178349        4.8483202588        0.2554368335
 H          1.7287482385        4.8328792320       -1.3825513441
 H          1.3296218156       -1.5885907503        2.2251672008
 H          3.5615052996       -2.2714866463        0.4394237545
 H          1.9370431486       -4.0351325342        2.3482731909
 H          3.4697289611       -3.2467102104        2.7848582647
 H          3.4219871060       -4.4915961575        1.5269771235
 H          2.1340946056       -1.4260467656       -1.2279232362
 H          0.4373589794       -3.4879426465       -2.4673513645
 H          0.1458560665       -1.7618797168       -4.2418534520
 H          1.8716034961       -2.0381052345       -3.9379969870
 H          1.0637863415       -0.5990041088       -3.2824654032
 C         -1.7379191615       -0.9465416458        0.1826399870
 C         -2.3167440365        0.2318792865       -0.3036169033
 C         -2.2587973547       -1.5852865848        1.2960860235
 C         -3.4455153804        0.7339941241        0.3440230891
 C         -3.9604024404        0.1027282030        1.4580677972
 C         -3.3620794567       -1.0521190925        1.9393416171
 H         -1.7956877894       -2.4993113347        1.6363666490
 H         -4.8277818831        0.5082255326        1.9557174812
 H         -3.7616897506       -1.5475201837        2.8113908276
 H         -3.8973058272        1.6407843133       -0.0292816228
 C         -1.7337407585        0.9869223058       -1.4170279434
 O         -0.6266323685        0.8364054416       -1.8751394566
 H         -2.4027693207        1.7782034801       -1.8021528924
