  56
        -94.14907008
 C          1.3740711387        0.9468035216        1.7265608395
 C          2.1264643178        1.3215012724        3.0080050352
 C          2.1314450395       -0.1580441148        0.9881597697
 O          2.8210231178        0.0767980430        0.0117622377
 O         -0.9651484089        2.3523827593        1.0575084013
 O         -2.1876229383        4.2372425206       -0.4327684854
 N          1.2633174545        2.0834376348        0.8472813798
 C          0.0986071271        2.6528131652        0.5287666495
 C          0.2092640578        3.7276562724       -0.5541945783
 C         -0.9034024772        4.7846148037       -0.3644613324
 N          1.5545401479        4.2793428291       -0.5700784266
 N          2.0185594031       -1.3806103038        1.5319934079
 C          2.6521796108       -2.5549828751        0.9474780815
 C          2.9107696844       -3.6015320672        2.0173426214
 C          1.7127711616       -3.0918294449       -0.1531672478
 O          1.0648494907       -4.1085545620       -0.0310264232
 N          1.6820149024       -2.2928145294       -1.2378336463
 O         -1.7131090060       -1.8970263848       -2.3526821837
 O         -0.6157674122       -1.5320842473       -0.4211897648
 C          0.6403400769       -2.4278255905       -2.2276571728
 C         -0.7040818842       -1.9178323321       -1.7074211901
 C          0.9997318681       -1.6698548437       -3.4996079257
 H          0.3547218521        0.6197873482        1.9639054778
 H          3.1268945827        1.6687508254        2.7600930294
 H          2.2064981252        0.4639748820        3.6706784048
 H          1.5964031769        2.1174245508        3.5246970978
 H         -2.1972680877        3.5076525961        0.2135212272
 H          2.0702671069        2.3143945239        0.2795643585
 H          0.0451516840        3.2124966588       -1.5089176863
 H         -0.8369879884        5.5360496645       -1.1583151954
 H         -0.7452029436        5.2887012091        0.6047304149
 H          1.6960195940        4.8749287786        0.2403630305
 H          1.6915244163        4.8483972700       -1.3976021849
 H          1.3294322411       -1.5514076970        2.2474718994
 H          3.5867025903       -2.2163850571        0.4876380013
 H          3.4607094096       -4.4331981885        1.5870128359
 H          1.9658824427       -3.9854696138        2.3948643249
 H          3.4876632690       -3.1788353821        2.8361682226
 H          2.1547203373       -1.3960640527       -1.1961355254
 H          0.5062892217       -3.4977894065       -2.4347144128
 H          0.2082323575       -1.7963548935       -4.2324513417
 H          1.9344379207       -2.0446981873       -3.9075707295
 H          1.0998087753       -0.6097620531       -3.2770933548
 C         -1.7428524227       -0.9854621198        0.1699473461
 C         -2.3169145420        0.1946123765       -0.3181174629
 C         -2.2843853524       -1.6369223171        1.2660277533
 C         -3.4613761155        0.6858827586        0.3100542597
 C         -3.9974898754        0.0415179657        1.4064519240
 C         -3.4043052797       -1.1151934198        1.8897074664
 H         -1.8240650329       -2.5515974257        1.6082522049
 H         -4.8777990830        0.4379541302        1.8885313960
 H         -3.8209367854       -1.6212564210        2.7475565040
 H         -3.9094181171        1.5939399063       -0.0646776657
 C         -1.7154121367        0.9608086177       -1.4139428149
 O         -0.6024980355        0.8124385461       -1.8584888064
 H         -2.3772827268        1.7577437692       -1.7999489259
