  56
        -94.14906462
 C         -2.8775840613        0.8424948156       -1.7620924223
 C         -3.0483702320        0.8859432625       -3.2704438790
 C         -2.1620259173        2.1004559698       -1.2392407292
 O         -1.5977520472        2.9015969805       -1.9654190853
 O         -2.8406290091       -0.4671401167        0.7324903959
 O         -2.5968729355       -3.1214625209        1.6043746229
 N         -2.0767192508       -0.3095713207       -1.3828505126
 C         -2.0982283554       -0.8541728901       -0.1651372450
 C         -1.1227648103       -2.0171623300        0.0049338925
 C         -1.2907848238       -2.6535191868        1.3999305154
 N         -1.3203592827       -2.9473029063       -1.0988663422
 N         -2.2057666414        2.2027826814        0.0985057596
 C         -1.3583277497        3.1311275605        0.8338675004
 C         -1.7867927593        3.1830814005        2.2889208700
 C          0.0690059549        2.5859033440        0.6814209273
 O          0.5699990867        1.7911094072        1.4522980285
 N          0.7019886036        3.0238531360       -0.4299470163
 O          0.7519047447        0.3253850394       -1.3318162303
 O          2.6251962256        0.2082799921       -0.0928619865
 C          1.9370376665        2.3607016575       -0.8085911457
 C          1.6845445476        0.8540518718       -0.7855334149
 C          2.3608725010        2.7968573925       -2.2041658210
 H         -3.8452671071        0.7513866975       -1.2540133386
 H         -3.6945787119        1.7151848491       -3.5440251490
 H         -3.4848223713       -0.0424363239       -3.6285699149
 H         -2.0811888648        1.0383270705       -3.7429122015
 H         -3.1699792447       -2.3400132699        1.6041392287
 H         -1.3547458808       -0.6117466522       -2.0199472221
 H         -0.1134570337       -1.5999367077       -0.0767692064
 H         -1.0052019766       -1.9203365864        2.1658152988
 H         -0.6307933856       -3.5219873390        1.4854522826
 H         -2.2023304859       -3.4336389993       -0.9567324096
 H         -0.5882351711       -3.6503018340       -1.0867769635
 H         -2.5878008917        1.4208247129        0.6275095643
 H         -1.4302110652        4.1137594757        0.3547651979
 H         -2.8416266788        3.4334498106        2.3636238920
 H         -1.2041029141        3.9302373805        2.8206247153
 H         -1.6108309018        2.2152434422        2.7527666432
 H          0.1200869139        3.3868588315       -1.1824636791
 H          2.7082723646        2.5908442938       -0.0648833777
 H          1.5919154973        2.5213835512       -2.9229102669
 H          3.2966188633        2.3188089703       -2.4824862463
 H          2.4968028523        3.8748679613       -2.2257980794
 C          2.5226092485       -1.1723003735        0.0434095772
 C          2.4389207870       -1.7213743115        1.3275821712
 C          2.5331456215       -1.9914735901       -1.0748915790
 C          2.3851889595       -3.1088363158        1.4583117256
 C          2.3914821042       -3.9267923264        0.3456708749
 C          2.4616507979       -3.3661837370       -0.9204473509
 H          2.5916091499       -1.5512452677       -2.0583729928
 H          2.3416007827       -4.9989368677        0.4607225749
 H          2.4650690313       -3.9979373421       -1.7958002073
 H          2.3280751028       -3.5162419661        2.4566291749
 C          2.3714382978       -0.8702076461        2.5328583226
 O          2.4234364286       -1.3008590921        3.6561988476
 H          2.2475911046        0.2041784955        2.3258050040
