  56
        -94.14906299
 C          0.1530392241       -3.0690474427       -1.6218229929
 C          0.2532820690       -3.3049594181       -3.1186715049
 C         -1.2893303610       -2.7399280085       -1.1988092372
 O         -2.1764519747       -2.4734573271       -1.9923611822
 O          1.2419028416       -2.5443326212        0.9242696959
 O          3.6675891550       -1.4980337740        1.8752514581
 N          0.9926206693       -1.9472959309       -1.2357271966
 C          1.4444448524       -1.7565653838        0.0049222189
 C          2.2521756012       -0.4712597753        0.1735662061
 C          2.8446101204       -0.3973281196        1.5958627526
 N          3.2476228954       -0.4103958051       -0.8883347787
 N         -1.4545101866       -2.7529374619        0.1332773117
 C         -2.6336103361       -2.1879156553        0.7746629462
 C         -2.6425837841       -2.5446923256        2.2498029606
 C         -2.5258917323       -0.6715367072        0.5579356891
 O         -1.9609977959        0.0784081001        1.3295999252
 N         -3.0647171448       -0.2499078879       -0.6080716188
 O         -0.4507651677        0.5582816262       -1.3887477212
 O         -0.9675205806        2.4372858541       -0.2657990453
 C         -2.7730224660        1.1072535061       -1.0344753108
 C         -1.2633214428        1.3159420692       -0.9268210228
 C         -3.2267169472        1.3145735947       -2.4727645626
 H          0.4944057879       -3.9447371246       -1.0565687425
 H         -0.1473449906       -2.4458298212       -3.6509147510
 H         -0.3315226724       -4.1780934640       -3.3938123889
 H          1.2888208032       -3.4605928011       -3.4085730357
 H          3.0913304914       -2.2770435804        1.8756314783
 H          1.1045880147       -1.1927039414       -1.8965963925
 H          1.5544723909        0.3617539233        0.0355581929
 H          2.0251876419       -0.3175254032        2.3223306182
 H          3.4743930690        0.4932712189        1.6814470767
 H          3.9695113394       -1.1000673181       -0.6939423925
 H          3.6965964496        0.4999402983       -0.8824786157
 H         -0.6283164103       -2.8627995726        0.7185254684
 H         -3.5211558693       -2.5714034423        0.2594043669
 H         -3.5588618620       -2.1879738918        2.7120413220
 H         -1.7994556237       -2.0663477570        2.7429174276
 H         -2.5734833088       -3.6215150845        2.3787194681
 H         -3.1931529313       -0.9482727375       -1.3378905661
 H         -3.2662477477        1.8095131624       -0.3529970332
 H         -4.2934069567        1.1223631811       -2.5519981210
 H         -2.6927550954        0.6287452592       -3.1272153182
 H         -3.0289332319        2.3356481039       -2.7888320843
 C          0.3706510692        2.7539617472       -0.0562760809
 C          0.8329907885        2.9020730096        1.2560210330
 C          1.2243131477        2.9478382183       -1.1311931015
 C          2.1643067726        3.2650605517        1.4580237211
 C          3.0178121078        3.4542167515        0.3889845613
 C          2.5469250595        3.2918409573       -0.9049279981
 H          0.8531977848        2.8237485143       -2.1368063343
 H          4.0481085344        3.7273345672        0.5596480523
 H          3.2074404302        3.4364257656       -1.7464959640
 H          2.5030290217        3.3815620345        2.4766291239
 C         -0.0411365377        2.6507150368        2.4197592179
 O          0.2789203154        2.8858472796        3.5565910193
 H         -1.0168478098        2.2060941582        2.1691563961
