  56
        -94.14905938
 C          0.1221413189       -3.0847728727       -1.6200758261
 C          0.2269833529       -3.3431680377       -3.1129030022
 C         -1.3172645997       -2.7274943087       -1.2097454749
 O         -2.1938420361       -2.4512967420       -2.0116768103
 O          1.1998795522       -2.5416140574        0.9259246499
 O          3.6232261979       -1.5207332087        1.9013241618
 N          0.9778062712       -1.9718040123       -1.2440208016
 C          1.4257304647       -1.7720873268       -0.0033053825
 C          2.2622638344       -0.5034777562        0.1508077353
 C          2.8289212110       -0.4098828432        1.5823433853
 N          3.2801616682       -0.4958612122       -0.8916063694
 N         -1.4922707708       -2.7296887378        0.1209980739
 C         -2.6700097016       -2.1483219197        0.7500237530
 C         -2.6980263404       -2.5027862907        2.2255229200
 C         -2.5412372834       -0.6338449658        0.5326666777
 O         -1.9788556410        0.1105650998        1.3114849718
 N         -3.0579186512       -0.2072308034       -0.6413540121
 O         -0.4225741730        0.5697140059       -1.3841358117
 O         -0.9341295015        2.4525728844       -0.2653135787
 C         -2.7432875001        1.1457160111       -1.0647963970
 C         -1.2329999565        1.3360821850       -0.9327384743
 C         -3.1709858755        1.3563792892       -2.5105167722
 H          0.4460853974       -3.9581483802       -1.0411087098
 H         -0.3675016849       -4.2127074286       -3.3785753900
 H          1.2618960937       -3.5163230425       -3.3950567147
 H         -0.1599871424       -2.4869160667       -3.6596955232
 H          3.0308712679       -2.2876757160        1.9056101259
 H          1.1120215310       -1.2316216700       -1.9166406730
 H          1.5901131422        0.3436992272       -0.0222119469
 H          1.9976662050       -0.2971567018        2.2909058084
 H          3.4754827977        0.4693074886        1.6607766495
 H          3.9794988784       -1.1987748594       -0.6647700329
 H          3.7533321566        0.4021352804       -0.8987104430
 H         -0.6713210779       -2.8443328956        0.7128689710
 H         -3.5571325921       -2.5213118083        0.2264020075
 H         -1.8536645045       -2.0346176225        2.7262292886
 H         -2.6441892187       -3.5802124036        2.3566079414
 H         -3.6140508400       -2.1334629152        2.6782566624
 H         -3.1885514851       -0.9045522451       -1.3717083831
 H         -3.2389231236        1.8549236092       -0.3922956892
 H         -4.2383219600        1.1760804021       -2.6071446008
 H         -2.6340643431        0.6638624814       -3.1554244697
 H         -2.9565676220        2.3747853422       -2.8243447153
 C          0.4045052319        2.7534505031       -0.0355922979
 C          0.8517944506        2.8864731788        1.2833798629
 C          1.2734660667        2.9474335952       -1.0981796698
 C          2.1837910792        3.2352848071        1.5047879019
 C          3.0523567276        3.4250595627        0.4480801541
 C          2.5963103044        3.2772464596       -0.8528172565
 H          0.9135671004        2.8348453357       -2.1092690220
 H          4.0828029178        3.6875300094        0.6337734296
 H          3.2686411275        3.4223987293       -1.6848691628
 H          2.5107579228        3.3404163723        2.5284603986
 C         -0.0391940784        2.6354078856        2.4344817272
 O          0.2692983661        2.8594996791        3.5767467158
 H         -1.0159131870        2.2020685331        2.1689289605
