  56
        -94.14902051
 C          0.4432282025       -3.4245699919       -0.1307146501
 C          0.3512072176       -4.5515487159       -1.1474446151
 C         -0.9594708337       -2.9575394357        0.2952593598
 O         -1.9655568120       -3.2325298984       -0.3435118397
 O          1.7442133924       -1.3538826744        1.2728558720
 O          3.6474482663        0.8436545365        1.1075433898
 N          1.1935658047       -2.3180344422       -0.6896254532
 C          1.8001771730       -1.3850902853        0.0517534861
 C          2.6241490509       -0.3875682331       -0.7605825694
 C          3.8951691214       -0.0084644018        0.0344735893
 N          2.9029167089       -0.9289811116       -2.0844379481
 N         -0.9648216230       -2.2538817747        1.4321016299
 C         -2.1843696915       -1.7530287659        2.0503103013
 C         -1.9321518534       -1.4844863113        3.5241824989
 C         -2.6134367334       -0.4719213993        1.3212385078
 O         -2.5641717048        0.6338217001        1.8197161593
 N         -3.0270069260       -0.6859022835        0.0512592394
 O         -0.6031893395        0.1948960841       -0.9231173664
 O         -1.4868198456        2.2596565326       -0.9858678787
 C         -3.0044754617        0.4318424811       -0.8692388634
 C         -1.5582031313        0.9270851225       -0.9282633368
 C         -3.4721811849       -0.0027275435       -2.2512782466
 H          0.9757923688       -3.7530649664        0.7714050627
 H         -0.2437215470       -4.2299911523       -1.9987064556
 H         -0.1368542436       -5.4128045244       -0.7001262214
 H          1.3432632707       -4.8395571198       -1.4853748034
 H          2.9210005544        0.4714494810        1.6364301415
 H          1.2029464955       -2.1824650493       -1.6906287738
 H          2.0059216765        0.5089358345       -0.8827759856
 H          4.5867917605        0.5257605399       -0.6283611225
 H          4.3881634488       -0.9364125189        0.3716161748
 H          3.6044763104       -1.6607188104       -2.0130460807
 H          3.2804705003       -0.2030140667       -2.6832523528
 H         -0.0765989970       -1.9040994724        1.7886597182
 H         -2.9606837644       -2.5146600182        1.9045479879
 H         -1.6032501543       -2.3911353913        4.0249611538
 H         -2.8430771440       -1.1245364802        3.9938437231
 H         -1.1682320664       -0.7173265824        3.6275100101
 H         -2.8981131875       -1.6203358330       -0.3361473043
 H         -3.6298033209        1.2389519369       -0.4724170847
 H         -2.8155811660       -0.7806670823       -2.6350857368
 H         -3.4624097736        0.8415361817       -2.9356401371
 H         -4.4835768175       -0.3951770010       -2.1876776566
 C         -0.2198142035        2.8434998713       -0.9570517464
 C          0.6402262542        2.6527142729        0.1291348071
 C          0.1729877535        3.6037367880       -2.0461480212
 C          1.9137610719        3.2208624694        0.0807693385
 C          2.3051433034        3.9812846552       -1.0041916964
 C          1.4304602480        4.1841324463       -2.0604635209
 H         -0.5098359987        3.7310896534       -2.8719599006
 H          3.2924593986        4.4161670378       -1.0277732855
 H          1.7294404051        4.7829034849       -2.9075738678
 H          2.5831998253        3.0340694103        0.9068632058
 C          0.2211958863        1.9076623460        1.3348933026
 O          0.9810107508        1.4057106253        2.1220314120
 H         -0.8700399460        1.8645591704        1.4890892456
