  56
        -94.14899941
 C         -0.9897536771       -2.9561880418       -1.9282341093
 C         -1.0717447971       -3.0759682213       -3.4397187439
 C         -2.1982855583       -2.2031784941       -1.3493131982
 O         -2.9866310140       -1.5727803652       -2.0329712214
 O          0.3872675173       -3.1415546780        0.4868559203
 O          2.0278814891       -1.9242844633        2.3014745913
 N          0.1948768150       -2.1997195891       -1.5451029840
 C          0.7741733440       -2.3247154174       -0.3468018962
 C          1.9539040280       -1.3981163541       -0.0814107317
 C          1.8468886497       -0.8885672528        1.3775397216
 N          3.1785891941       -2.1391939667       -0.3464383879
 N         -2.2541475549       -2.2694246011       -0.0079819703
 C         -3.0448358222       -1.3340364415        0.7801918640
 C         -3.0214995014       -1.7375381007        2.2430879121
 C         -2.3816675430        0.0330559520        0.5581552388
 O         -1.4603937026        0.4507685053        1.2354903849
 N         -2.8616401218        0.7096729813       -0.5044448789
 O         -0.1174305515        0.6832465241       -1.4062275409
 O         -0.0210025781        2.5595464869       -0.1581827587
 C         -2.1495838265        1.8999078702       -0.9361853010
 C         -0.6479169122        1.6156346066       -0.8579774239
 C         -2.5363838167        2.2506190955       -2.3663797210
 H         -0.9137496220       -3.9407438865       -1.4533168311
 H         -1.2071047655       -2.0910165260       -3.8800209630
 H         -1.9249485781       -3.6900540392       -3.7134859080
 H         -0.1646735896       -3.5272576537       -3.8322515886
 H          1.3948922266       -2.6233222668        2.0601877628
 H          0.4270038415       -1.4017857091       -2.1174850148
 H          1.9099765208       -0.5432371661       -0.7617836999
 H          0.8746209738       -0.3916347439        1.5141548048
 H          2.6400067103       -0.1588259503        1.5677198890
 H          3.9787667526       -1.5393923331       -0.1693371449
 H          3.2390469798       -2.9131967013        0.3109276751
 H         -1.4921423655       -2.7370664313        0.4777412468
 H         -4.0644923135       -1.3192798176        0.3800669362
 H         -3.6768867570       -1.0887220214        2.8175698048
 H         -2.0108676323       -1.6362217376        2.6324545913
 H         -3.3508477838       -2.7669721916        2.3561447058
 H         -3.3665577219        0.1818788797       -1.2118644076
 H         -2.3754643130        2.7239952237       -0.2488326801
 H         -2.2752084019        1.4276120338       -3.0282435294
 H         -2.0144406534        3.1473186891       -2.6906031760
 H         -3.6071625085        2.4273650275       -2.4252655195
 C          1.3455987593        2.4768366307        0.0725028592
 C          1.7990433342        2.6583389641        1.3844565939
 C          2.2464170452        2.2805516887       -0.9619896456
 C          3.1717358931        2.6499505167        1.6272375725
 C          4.0705608515        2.4423071298        0.5990963219
 C          3.6056289389        2.2545008868       -0.6929419918
 H          1.8866338176        2.1512917807       -1.9709134246
 H          5.1308507288        2.4270774507        0.8000622187
 H          4.3016743591        2.0929667915       -1.5021360575
 H          3.5035194277        2.7971653767        2.6441552317
 C          0.8570424019        2.8223778540        2.5078424775
 O          1.1819586577        3.1594974085        3.6165594165
 H         -0.1905922003        2.5927460121        2.2530984936
