  56
        -94.14895721
 C          0.8428401455       -1.6289358824        2.2438542111
 C          1.5079350497       -2.3176515457        3.4359097971
 C          0.0187667320       -2.6416063658        1.4440348108
 O          0.5541975519       -3.3424358256        0.5977825220
 O          1.4076609454        1.1000313133        1.5713162790
 O          2.6975102411        2.8260892934       -0.0329940680
 N          1.8268714997       -1.1119469627        1.3200653521
 C          1.9141284451        0.1724145566        0.9567762621
 C          2.7390654894        0.3958189441       -0.3156281623
 C          3.5331013553        1.7157053628       -0.2022005602
 N          3.5589614701       -0.7674946540       -0.6128955903
 N         -1.2883854405       -2.7206451017        1.7404000226
 C         -2.2188129224       -3.4324925765        0.8668709449
 C         -3.4985763292       -3.7620853472        1.6130667540
 C         -2.4709606049       -2.4765044136       -0.3172522597
 O         -3.4600144726       -1.7830963672       -0.4076858786
 N         -1.4440029603       -2.4502836359       -1.2039569475
 O         -0.9622684986       -0.2541597680        0.2323281666
 O         -1.0299143903        1.0904118859       -1.5712149480
 C         -1.2087306692       -1.2361139671       -1.9577955427
 C         -1.0573624895       -0.0867389601       -0.9553732402
 C          0.0463033608       -1.3590060623       -2.8121248611
 H          0.2246524789       -0.7874773231        2.5685712631
 H          0.7529907653       -2.7017607066        4.1169296458
 H          2.1375208906       -1.6091550516        3.9675805230
 H          2.1215708610       -3.1449155926        3.0867798964
 H          2.0889694162        2.5890378029        0.6954954226
 H          2.2238978900       -1.7930008668        0.6790504313
 H          2.0148579803        0.5112536374       -1.1316579963
 H          4.1018519733        1.8834067613       -1.1231277718
 H          4.2440418998        1.6332264017        0.6379187319
 H          4.3480065222       -0.8088309624        0.0256684092
 H          3.9295823906       -0.6990125259       -1.5541775015
 H         -1.6978222512       -1.9827790118        2.2939961599
 H         -1.7102290501       -4.3367730303        0.5190933600
 H         -4.0362403293       -2.8444972997        1.8403038598
 H         -3.2770041068       -4.2937549233        2.5348437601
 H         -4.1365182842       -4.3813741210        0.9891021324
 H         -0.6072781346       -2.9650278199       -0.9451917441
 H         -2.0863941721       -1.0196097705       -2.5772098880
 H          0.2777997473       -0.4005815433       -3.2695241727
 H         -0.1042845753       -2.1027079506       -3.5899966154
 H          0.8881205183       -1.6636599344       -2.1923162668
 C         -0.9634801858        2.2566038656       -0.8246603698
 C          0.0114880758        3.2100617432       -1.1477206835
 C         -1.8888780049        2.5015384399        0.1771737837
 C          0.0167592328        4.4163393886       -0.4468318826
 C         -0.9002236964        4.6587797938        0.5553950903
 C         -1.8499102804        3.6986420015        0.8695866677
 H         -2.6305186213        1.7522218192        0.4071125591
 H         -0.8761808390        5.5920991429        1.0967444605
 H         -2.5675175297        3.8819145907        1.6547098260
 H          0.7723902298        5.1485752039       -0.6866935892
 C          1.0500730766        2.9611994108       -2.1562242451
 O          1.2470898187        1.9195192049       -2.7330245914
 H          1.6719189112        3.8501323561       -2.3626985341
