  56
        -94.15288449
 C         -2.2988957207        0.3450592621       -1.8970117654
 C         -2.3055191916       -0.7205120703       -2.9804433113
 C         -0.9476636350        1.0773864480       -1.8397053187
 O          0.0442409758        0.6598283398       -2.4098584887
 O         -3.2736789474        1.6019659436        0.4077639671
 O         -1.5509897723       -2.1576449530        1.1421662632
 N         -2.5287120194       -0.2747591670       -0.6012571999
 C         -2.9813821691        0.4111569932        0.4582229166
 C         -3.1455663230       -0.3640708949        1.7732434661
 C         -2.8083414455       -1.8608779582        1.7026029536
 N         -2.3693842350        0.2610619075        2.8374538015
 N         -0.9881554831        2.2061692416       -1.1024185961
 C          0.2191817870        2.7046803496       -0.4794824291
 C          0.0065875185        4.1245785937        0.0293181027
 C          0.5656791354        1.7429205771        0.6576620723
 O         -0.1762919015        0.8166938564        0.9494474919
 N          1.6950817935        1.9577917296        1.3497638176
 O          0.9511342248       -1.2145351491        2.4598832355
 O          2.1454751764       -0.5917408466        0.6309668594
 C          2.0532267712        0.9598099765        2.3510683868
 C          1.5977194146       -0.4160178028        1.8333200235
 C          3.5541925940        0.9666630111        2.5979123367
 H         -3.0964873259        1.0810604934       -2.0536363680
 H         -1.4728257748       -1.4033132900       -2.8246774798
 H         -2.1884453780       -0.2550938629       -3.9550061096
 H         -3.2389414883       -1.2766455501       -2.9580808770
 H         -0.8567037607       -1.7717194247        1.6991546311
 H         -2.0620516655       -1.1589246269       -0.4244689529
 H         -4.2035303330       -0.2753629105        2.0576242253
 H         -3.5432607917       -2.3740484476        1.0753182347
 H         -2.8761582087       -2.2587194623        2.7224940741
 H         -2.6305366859        1.2404230117        2.9005207204
 H         -1.3835469274        0.2357845075        2.5882033531
 H         -1.8458292758        2.3496202988       -0.5644469679
 H          1.0316072158        2.6600047761       -1.2143963233
 H         -0.2527799865        4.7756979946       -0.8013446905
 H          0.9070686912        4.5020704039        0.5054104702
 H         -0.8077303284        4.1416403722        0.7507869318
 H          2.4363144900        2.5031368226        0.9386380981
 H          1.4986991002        1.1636320788        3.2763376422
 H          3.8649203150        1.9362318883        2.9805863007
 H          4.0792659044        0.7612318363        1.6678226612
 H          3.8148575295        0.2047486340        3.3279323116
 C          1.7546072113       -1.5356850377       -0.2902188717
 C          1.8955755737       -1.1565107442       -1.6368419378
 C          1.2687627845       -2.7896845735        0.0456776029
 C          1.5186735038       -2.0648828496       -2.6233554012
 C          1.0151840496       -3.3072710304       -2.2901780491
 C          0.8934655428       -3.6669161036       -0.9574142923
 H          1.1720469691       -3.0731630342        1.0801412661
 H          0.7164751558       -3.9959914707       -3.0662023680
 H          0.5014152918       -4.6358736597       -0.6896066442
 H          1.6093729133       -1.7709269631       -3.6581590328
 C          2.3815049370        0.1734917846       -2.0366617267
 O          2.7510386525        1.0619006032       -1.3042298766
 H          2.4368896210        0.2905416251       -3.1330482480
