  56
        -94.14893081
 C         -1.2205833461       -0.7429117222       -2.6813347309
 C          0.0506680135       -1.2098257081       -3.3850844431
 C         -1.0112064609        0.6555402320       -2.0672347076
 O         -0.0633889027        1.3571271341       -2.3514382775
 O         -0.1721924280       -0.9136692310       -0.0771293029
 O         -1.8244336513       -3.6371094978        2.6651436126
 N         -1.6222522179       -1.6657001262       -1.6364835794
 C         -1.0232715200       -1.7081639123       -0.4321499180
 C         -1.5370049932       -2.8541622725        0.4343794739
 C         -1.3794403920       -2.5166058217        1.9205893563
 N         -2.9063731537       -3.1805647958        0.0526605677
 N         -2.0454617222        1.0454666193       -1.2939199213
 C         -1.9394744081        2.1205062664       -0.3242199696
 C         -3.2389622408        2.9145098371       -0.2652013715
 C         -1.6643656864        1.4276933231        1.0227891053
 O         -2.4358918052        0.5887080014        1.4559361027
 N         -0.5435038290        1.8285590572        1.6389892317
 O          1.4577899037       -0.9355319867        2.5192288931
 O          1.7037415068        0.7898441221        1.0645225626
 C          0.0698744163        1.0507411702        2.6939230569
 C          1.1478091051        0.1407077976        2.0863392786
 C          0.7106492093        1.9662744202        3.7355681179
 H         -2.0458219054       -0.6713494683       -3.3994675774
 H          0.3522377242       -0.4685796129       -4.1188817411
 H         -0.1154738493       -2.1648508412       -3.8772761369
 H          0.8486933284       -1.3126616697       -2.6541625825
 H         -1.6219287831       -3.4825864783        3.5920470024
 H         -2.2886342423       -2.4027041143       -1.8253447267
 H         -0.9167826221       -3.7330659819        0.2134250197
 H         -1.9870852593       -1.6301358844        2.1488519424
 H         -0.3295040496       -2.2933492910        2.1307896606
 H         -3.5159319578       -2.4283343429        0.3667113794
 H         -3.1880445453       -4.0096722896        0.5672242677
 H         -2.7273986533        0.3441486664       -1.0338084189
 H         -1.0996728976        2.7515017166       -0.6226211722
 H         -3.1261282565        3.7544749438        0.4146014858
 H         -4.0425147270        2.2772333018        0.0979784075
 H         -3.4968429727        3.2888744646       -1.2524937301
 H          0.1101589072        2.3996659750        1.1057393158
 H         -0.6999286965        0.4193988985        3.1472637071
 H          1.1967220004        1.3722366833        4.5049091230
 H         -0.0498154868        2.5913695456        4.1960570609
 H          1.4499564596        2.6052464835        3.2582431211
 C          2.3978601415        0.2429995288        0.0245803781
 C          2.4958799976        1.0622337524       -1.1170299474
 C          2.9653545620       -1.0226678538        0.0346320568
 C          3.1730759457        0.5706562024       -2.2317696001
 C          3.7354804691       -0.6900882198       -2.2224205076
 C          3.6263118406       -1.4838137112       -1.0902906536
 H          2.8685785508       -1.6432612402        0.9101190510
 H          4.2521818382       -1.0604921528       -3.0949557122
 H          4.0585986858       -2.4734350184       -1.0810167567
 H          3.2384542499        1.1900731490       -3.1137215223
 C          1.8851473904        2.3941722117       -1.1867114234
 O          1.3086483561        2.9828695146       -0.3003633550
 H          2.0398038625        2.8809112489       -2.1649433361
