  56
        -94.14886175
 C         -1.4249639574       -1.8875770674       -2.2322236181
 C         -1.2059248087       -1.2921870246       -3.6186428653
 C         -2.5284495790       -1.1279252773       -1.4836525160
 O         -3.2252526979       -0.2775818593       -2.0141617441
 O          0.2261925375       -4.0345097687       -1.3492186973
 O         -0.3567688846       -1.9582347084        1.5794249760
 N         -0.2222160313       -1.8162353174       -1.4284675368
 C          0.4482188232       -2.8947132509       -0.9890911834
 C          1.4984493489       -2.5759256868        0.0832082643
 C          0.7799799327       -2.7693024113        1.4386712956
 N          2.6558435542       -3.4505008465        0.0428177156
 N         -2.6366805278       -1.4634059622       -0.1883471779
 C         -3.4997860763       -0.7504429956        0.7362758756
 C         -3.9401116715       -1.6786528634        1.8555626732
 C         -2.7160242601        0.4490936131        1.2960297915
 O         -2.4455873974        0.5966582495        2.4658700663
 N         -2.3437348588        1.3212914092        0.3295033259
 O          0.2047905612        1.0216329347       -0.6529240552
 O          0.9139150724        2.8520239078        0.4401590191
 C         -1.3882197536        2.3659164808        0.5889216428
 C         -0.0185071621        1.9650893275        0.0598640062
 C         -1.8253346811        3.6918593058       -0.0348216412
 H         -1.6943956383       -2.9477176264       -2.3105434981
 H         -2.1460057915       -1.2780583621       -4.1620703722
 H         -0.4772604268       -1.8809257043       -4.1689433667
 H         -0.8454847286       -0.2702149944       -3.5260823605
 H         -0.0882794724       -1.0566333020        1.8174349439
 H          0.0370334537       -0.8922069130       -1.1099476700
 H          1.8355011925       -1.5375343994       -0.0180315427
 H          1.4976637444       -2.6062543743        2.2498689687
 H          0.4282887701       -3.8043498490        1.4918460231
 H          3.1457756736       -3.3267070411       -0.8384375803
 H          2.3268777808       -4.4130577273        0.0561061061
 H         -1.9201879998       -2.0315017386        0.2513482297
 H         -4.3557929905       -0.3768642344        0.1618385384
 H         -4.5743398514       -1.1392539576        2.5526879100
 H         -3.0636793780       -2.0329710568        2.3923216861
 H         -4.4861757074       -2.5268662393        1.4520178012
 H         -2.5927996570        1.1287738276       -0.6330672920
 H         -1.3082945063        2.4588845904        1.6792835827
 H         -2.7941768750        3.9765040010        0.3660168480
 H         -1.9117181090        3.5874476431       -1.1145958237
 H         -1.1039314265        4.4711696156        0.1933194495
 C          2.2451029070        2.6031247037        0.1622663014
 C          2.9136879970        1.4873140801        0.6899516444
 C          2.9263404394        3.5259387145       -0.6171497022
 C          4.2690673863        1.3222213126        0.3900262769
 C          4.9411797492        2.2358479283       -0.3948407698
 C          4.2700259897        3.3441656123       -0.8915349623
 H          2.3893609110        4.3790208526       -1.0017583335
 H          5.9866419459        2.0912758349       -0.6183668226
 H          4.7921800072        4.0659703613       -1.5005523444
 H          4.7855687964        0.4603132145        0.7865235134
 C          2.2624077133        0.5075663864        1.5621964490
 O          1.1016927548        0.5021696799        1.8995255100
 H          2.9552662166       -0.2784096114        1.9175486633
