  56
        -94.14882326
 C          0.2911351595       -0.8098170466       -2.1680195872
 C          1.7298582808       -1.2259615669       -1.9194433875
 C          0.0118202560        0.6206920510       -1.6814708783
 O          0.7408349809        1.2191320609       -0.9063710477
 O         -2.4249959759       -1.2661021302       -2.7093466543
 O         -0.8978355580       -3.6099139593        0.5242221812
 N         -0.6138560693       -1.6770109892       -1.4305905050
 C         -1.9055621054       -1.8156090895       -1.7452675334
 C         -2.7229761504       -2.6798752386       -0.7888521145
 C         -1.9717186641       -3.9377865491       -0.3174837858
 N         -2.9963164563       -1.8828051645        0.4050326358
 N         -1.1460383283        1.1110439436       -2.1560965620
 C         -1.8074332524        2.2619826499       -1.5534133019
 C         -3.0122364842        2.6575492410       -2.3868989075
 C         -2.2116422719        1.7647345751       -0.1562481041
 O         -3.2304178433        1.1363094435        0.0470040551
 N         -1.2836516407        2.0166069219        0.7926704744
 O         -0.2960612846       -0.8893164168        1.5234390039
 O          1.0739983195        0.8410502626        1.9913878624
 C         -1.2403051847        1.2747940827        2.0420655422
 C         -0.1177397468        0.2531640924        1.8475888392
 C         -1.0149975374        2.2002234317        3.2301061387
 H          0.0346817290       -0.8785288617       -3.2325149926
 H          1.8911408044       -2.2461425675       -2.2570903736
 H          1.9543322170       -1.1618123773       -0.8578176309
 H          2.4041588145       -0.5604344287       -2.4511975713
 H         -1.2063328308       -2.8842397486        1.0963075518
 H         -0.2690269655       -2.1275300062       -0.5871081247
 H         -3.6310807372       -2.9814442078       -1.3368835417
 H         -1.5657025152       -4.4906142086       -1.1683522742
 H         -2.6819154264       -4.5891584958        0.2145085365
 H         -3.7780503593       -2.2771891045        0.9174688406
 H         -3.2359712435       -0.9232454980        0.1719239437
 H         -1.7571083496        0.4598739875       -2.6541047567
 H         -1.0827416022        3.0794842789       -1.4765389230
 H         -2.7126493628        2.8536788214       -3.4127237622
 H         -3.4741062430        3.5496715018       -1.9727527242
 H         -3.7406803585        1.8501380324       -2.3725242802
 H         -0.3933761288        2.3889546568        0.4818557406
 H         -2.1891859713        0.7346982528        2.1270632156
 H         -0.0756545801        2.7362109653        3.1232809776
 H         -0.9880660303        1.6242414412        4.1512187568
 H         -1.8273624594        2.9195783877        3.2891112469
 C          2.2435326838        0.1863111882        1.6352364923
 C          3.2024669242        0.9218059989        0.9246357192
 C          2.4830658561       -1.1366192642        1.9726276053
 C          4.3893963913        0.2936608740        0.5516971626
 C          4.6254972269       -1.0270407050        0.8785970993
 C          3.6730352751       -1.7371702421        1.5918737791
 H          1.7440463913       -1.6990894487        2.5199354636
 H          5.5467651392       -1.5039186362        0.5814442032
 H          3.8487416205       -2.7689655802        1.8549527497
 H          5.1120337166        0.8747697749       -0.0012127503
 C          2.9795673870        2.3278199052        0.5552589066
 O          3.7277123298        2.9835140330       -0.1215503692
 H          2.0552096751        2.7626179366        0.9724724337
