  56
        -94.14880636
 C         -2.4156947737        0.0838923708       -2.3035198336
 C         -2.4560483834       -0.6364469612       -3.6401015456
 C         -1.0580368726        0.8003037028       -2.1067900217
 O         -0.0305002938        0.4134894764       -2.6200522915
 O         -2.9265341854        0.6061624267        0.4461929445
 O         -2.8452111530       -0.3489255996        2.9997642991
 N         -2.5863584107       -0.8754843678       -1.2274870122
 C         -2.7656097749       -0.5516063877        0.0475708105
 C         -2.7321702821       -1.7515973683        0.9909299952
 C         -3.4316558221       -1.4292782812        2.3297732320
 N         -3.2679633806       -2.9167402224        0.3060826312
 N         -1.1551060114        1.8837403754       -1.3130386958
 C         -0.0057415142        2.6322440939       -0.8548126404
 C         -0.3920928481        4.0867563470       -0.6020259383
 C          0.6195655514        2.0499232641        0.4201395603
 O          1.8061175522        2.1742354820        0.6590072501
 N         -0.2244094696        1.4240780155        1.2550525816
 O          2.6083609645        0.0862068368        2.7688792789
 O          1.5100887786       -0.5102450542        0.8751979744
 C          0.2997768567        0.7552093584        2.4336324713
 C          1.6422058116        0.1177224118        2.0633309697
 C          0.4720822236        1.7177196652        3.6045080078
 H         -3.2234037696        0.8225603645       -2.2294222301
 H         -1.5795549796       -1.2729446630       -3.7314322572
 H         -2.4374960883        0.0864389366       -4.4510134440
 H         -3.3562273461       -1.2402742577       -3.7213686703
 H         -2.9237557415        0.4120671362        2.4011353677
 H         -2.3290775403       -1.8402093839       -1.3979595963
 H         -1.6661775952       -1.9354527758        1.1782615801
 H         -3.3540687438       -2.2913365842        2.9996346821
 H         -4.4991943091       -1.2347431643        2.1354887297
 H         -4.2789728798       -2.8510085563        0.2382508579
 H         -3.0446724143       -3.7623893193        0.8171776590
 H         -2.0281476227        2.0357710267       -0.8229857866
 H          0.7602769757        2.5675305765       -1.6352426870
 H          0.4794648470        4.6414687494       -0.2661793948
 H         -1.1601404446        4.1434571994        0.1672564648
 H         -0.7702441288        4.5415169562       -1.5143954524
 H         -1.1956309920        1.2838164649        1.0129552828
 H         -0.3973843706       -0.0451183327        2.7048508897
 H          1.1222265008        2.5368779700        3.3091337737
 H          0.9307466691        1.1950855188        4.4381352230
 H         -0.4939324393        2.1088129462        3.9111365811
 C          2.5457365857       -0.7898934610        0.0292754323
 C          2.2099743884       -1.4817579100       -1.1516276930
 C          3.8503628691       -0.3584936965        0.2321624502
 C          3.2081416600       -1.7182587416       -2.0989044783
 C          4.5035608656       -1.2976197318       -1.8878380323
 C          4.8179551926       -0.6155645226       -0.7212814062
 H          4.0981116642        0.1912793766        1.1245186070
 H          5.2655824599       -1.4891755828       -2.6278192848
 H          5.8270862534       -0.2709847461       -0.5527617734
 H          2.9455556270       -2.2396517797       -3.0078086732
 C          0.8589546791       -1.9593948593       -1.4236310814
 O         -0.0820554282       -1.9712104744       -0.6650158947
 H          0.7550786670       -2.3754769500       -2.4453382306
