  56
        -94.15282859
 C         -1.4944369427        1.0307872106       -1.5749164019
 C         -1.3368104848       -0.1428737126       -2.5386382470
 C         -0.1202581380        1.4894377229       -1.0645771466
 O          0.8381237521        1.5537024464       -1.8246192542
 O         -3.7885657342        2.4946527997       -0.8252349501
 O         -2.0551437149        1.3858567056        2.3067014377
 N         -2.4168183729        0.7215126519       -0.5091703352
 C         -3.4622601878        1.5145917114       -0.1877767742
 C         -4.1862350094        1.0994751671        1.0994947074
 C         -3.4145117952        1.7366094329        2.2757692719
 N         -5.5593289373        1.5599972227        1.1500711464
 N         -0.0581055388        1.8351235737        0.2240962085
 C          1.1257176671        2.4337127929        0.8222177778
 C          0.7480767021        3.1075211708        2.1298982015
 C          2.1954243159        1.3475097436        1.0523488418
 O          2.3785625141        0.8022965940        2.1208066570
 N          2.9191103051        1.0933003742       -0.0566359626
 O          4.0224721538       -2.1984663795       -0.9360788167
 O          2.0424039003       -1.3197977098       -0.2824617225
 C          3.9305814329        0.0658208414       -0.0824379699
 C          3.3693302015       -1.2903772156       -0.5069123237
 C          5.0944995752        0.4607114567       -0.9847330151
 H         -1.9249934006        1.8890441093       -2.1089808706
 H         -2.2755566860       -0.3451390708       -3.0469859456
 H         -1.0269940276       -1.0370920935       -2.0001948943
 H         -0.5756065660        0.1016964039       -3.2739385624
 H         -1.9686391808        0.4222416479        2.4057455336
 H         -2.2213080315       -0.0870984326        0.0628047185
 H         -4.1713916912        0.0089461798        1.2084547340
 H         -3.9183512561        1.4625463227        3.2098741490
 H         -3.4445453498        2.8244928650        2.1719738541
 H         -6.1135301060        1.0765908020        0.4505430139
 H         -5.5775983547        2.5467642869        0.9044647025
 H         -0.8651901057        1.7469337432        0.8391003060
 H          1.5347485945        3.1612631945        0.1087180244
 H          1.6222595044        3.5830279245        2.5656334978
 H          0.3715451756        2.3658884783        2.8291031937
 H         -0.0195702347        3.8574010897        1.9596028317
 H          2.5242570239        1.3989262569       -0.9456875749
 H          4.2741747541       -0.0616513698        0.9551364593
 H          4.7307601468        0.6776253477       -1.9865191416
 H          5.8061344166       -0.3577982943       -1.0408054732
 H          5.5898871954        1.3432184318       -0.5910800286
 C          1.2271767949       -2.3794251692       -0.5939931869
 C          0.0110755706       -2.4384663089        0.1114499236
 C          1.4874768678       -3.2973593075       -1.6009767937
 C         -0.9258561617       -3.4182056370       -0.2252335602
 C         -0.6556939665       -4.3380944158       -1.2168766588
 C          0.5511311300       -4.2746935106       -1.8974979047
 H          2.4145823318       -3.2514665057       -2.1475768933
 H         -1.3793138548       -5.0992860073       -1.4632007526
 H          0.7674683704       -4.9877921620       -2.6781156195
 H         -1.8562338191       -3.4421569680        0.3226536460
 C         -0.2844415596       -1.4833833295        1.1749364064
 O         -1.4091302109       -1.2469412399        1.5725068065
 H          0.5848681793       -0.9638974489        1.6030352657
