  56
        -94.14880422
 C         -0.6760492499       -2.8694575887       -1.8273702505
 C         -0.9933009279       -2.9364992136       -3.3114619623
 C         -1.9048602256       -2.4288741293       -1.0115374590
 O         -2.9119036016       -1.9643609976       -1.5211171663
 O          1.0563349828       -2.7482565961        0.4023957672
 O          3.8558057412       -2.3603334443        0.5210652471
 N          0.4002982856       -1.9238476178       -1.5914466345
 C          1.1741820204       -1.9310441675       -0.5065857864
 C          2.2450626993       -0.8415113870       -0.5117782462
 C          3.2573738442       -1.0955499103        0.6238694101
 N          2.8398692694       -0.7898097919       -1.8399926481
 N         -1.7451083938       -2.6094190494        0.3071118574
 C         -2.6832099940       -2.0838489295        1.2889714699
 C         -2.4081073103       -2.7017793195        2.6478608257
 C         -2.4671806470       -0.5640061902        1.2991517488
 O         -1.7186058994        0.0032505804        2.0715239035
 N         -3.1395302821        0.0817075583        0.3222274065
 O         -0.5498457864        0.7127187976       -0.5944673107
 O         -0.7531322157        2.5225942031        0.7177122553
 C         -2.7596293772        1.4530946331        0.0287996277
 C         -1.2327098937        1.4970668393        0.0109917799
 C         -3.3200030172        1.8769891534       -1.3212969655
 H         -0.3453252913       -3.8454536207       -1.4497073483
 H         -0.1000458972       -3.1842511298       -3.8784944053
 H         -1.3817125721       -1.9782102543       -3.6472082856
 H         -1.7529534504       -3.6917509182       -3.4920604861
 H          3.1492099113       -3.0092402978        0.6535556788
 H          0.5251254215       -1.1641230497       -2.2437173880
 H          1.7302502749        0.1074054160       -0.3259209498
 H          2.7466061372       -0.9777961754        1.5883709202
 H          4.0666350912       -0.3621346023        0.5628902256
 H          3.4508829720       -1.5945003197       -1.9554188469
 H          3.4167197399        0.0397631317       -1.9303738167
 H         -0.8161215172       -2.8579489575        0.6460739784
 H         -3.6983607628       -2.3066823808        0.9418269245
 H         -2.4467465084       -3.7859569654        2.5850025810
 H         -3.1467651711       -2.3589574782        3.3671051922
 H         -1.4233616720       -2.3948765349        2.9921987242
 H         -3.4869993801       -0.4805332104       -0.4532638118
 H         -3.1129733950        2.1087157409        0.8330324274
 H         -2.9210762426        1.2333471956       -2.1024385482
 H         -3.0497683476        2.9074270664       -1.5372331841
 H         -4.4036115203        1.7929502691       -1.3120208025
 C          0.6181177559        2.5246814408        0.9720285499
 C          1.5081686995        3.2039167340        0.1349989311
 C          1.0725793138        1.8311120336        2.0819936307
 C          2.8679674650        3.1863705050        0.4553227771
 C          3.3218844241        2.5147804402        1.5718061066
 C          2.4239404928        1.8358211661        2.3838502381
 H          0.3553330920        1.2903095661        2.6807168351
 H          4.3741326096        2.5137396377        1.8120045636
 H          2.7771423820        1.3043924822        3.2541505352
 H          3.5450059706        3.7154227520       -0.1988477338
 C          1.0469799317        3.9159774439       -1.0642177706
 O          1.7679006472        4.4500733467       -1.8667583247
 H         -0.0526859287        3.9285831575       -1.1860525516
