  56
        -94.14879765
 C         -2.8994919165       -2.0881445332        0.8107867504
 C         -3.7451347910       -3.0298377419       -0.0294085974
 C         -3.1921150381       -0.6148917350        0.4760615318
 O         -3.7753118723       -0.2641949051       -0.5397708704
 O         -0.6958186577       -1.3256531851        2.4231450119
 O          0.3287204621       -4.7840579956        1.1010890037
 N         -1.4907109117       -2.3390319230        0.5691861319
 C         -0.5075072146       -1.9560482050        1.3920714985
 C          0.8751333263       -2.4215377596        0.9593948344
 C          1.1525824873       -3.7827284132        1.6311520670
 N          0.9079001461       -2.6228673646       -0.4852708438
 N         -2.7306028704        0.2285109622        1.4079833929
 C         -2.7736234125        1.6734699179        1.2516294642
 C         -2.5308846531        2.3412231897        2.5937745837
 C         -1.6899867390        2.0503661976        0.2348865098
 O         -0.5898598891        2.4765709948        0.5361303156
 N         -2.0391195179        1.8262206614       -1.0454473821
 O          0.3970507319        0.2964845708       -0.9821384711
 O          1.2971008403        2.2864996466       -1.5417062043
 C         -0.9990747061        1.9404858898       -2.0531437502
 C          0.2926150594        1.4126853460       -1.4260231261
 C         -1.3584169379        1.1160135839       -3.2813993757
 H         -3.0867704771       -2.2417803717        1.8811185371
 H         -3.6098135911       -2.8058494056       -1.0849799606
 H         -4.7958656312       -2.8966845168        0.2122354201
 H         -3.4625514174       -4.0612200082        0.1642725684
 H          0.3647621063       -4.6821634041        0.1389770942
 H         -1.2202926618       -2.8092199348       -0.2830724605
 H          1.6028035125       -1.6848881540        1.3329013603
 H          0.9477637249       -3.7262351258        2.7018031651
 H          2.2130712547       -4.0397810434        1.4850857161
 H          1.8536571550       -2.8574889580       -0.7774328145
 H          0.6862089443       -1.7416804868       -0.9390290142
 H         -2.0726564788       -0.1455816374        2.0974230727
 H         -3.7552949520        1.9374306139        0.8403825953
 H         -2.6166776648        3.4195780311        2.4928042382
 H         -1.5265338106        2.1054643559        2.9372068533
 H         -3.2540320291        1.9910276232        3.3252772257
 H         -2.8526619980        1.2417594042       -1.2342740447
 H         -0.8506176406        2.9967112228       -2.3104791683
 H         -2.3128640864        1.4484707135       -3.6813660596
 H         -1.4349394662        0.0655022673       -3.0091612312
 H         -0.5975462099        1.2289017955       -4.0496376886
 C          2.4540369683        2.0473545515       -0.8095914050
 C          3.2060327410        0.8794356317       -0.9633318046
 C          2.8162636580        3.0011165656        0.1282846719
 C          4.3158873081        0.6840709398       -0.1386579043
 C          4.6858686581        1.6397067254        0.7847189720
 C          3.9389701915        2.8023272717        0.9118277631
 H          2.1957669353        3.8752222033        0.2418676556
 H          5.5503073338        1.4801520336        1.4108652945
 H          4.2209712795        3.5500173341        1.6372910895
 H          4.8786569879       -0.2301119863       -0.2560707117
 C          2.8665189231       -0.1357748500       -1.9679337462
 O          3.2096247939       -1.2902335439       -1.9210414179
 H          2.2785908132        0.2452613638       -2.8252788969
