  56
        -94.14876974
 C          1.5685051026        0.1822674775       -2.2233357051
 C          0.7146291680        0.6216279641       -3.3974964339
 C          1.2304951408       -1.2372334624       -1.7399071137
 O          0.1538974724       -1.7742917451       -1.9214709091
 O          3.4050630197        0.6532615794       -0.2136066148
 O          1.2847834430        4.2042359128        1.8587552309
 N          1.3568293641        1.0384520537       -1.0629251492
 C          2.2963171083        1.1512716353       -0.1063916823
 C          1.8831674782        1.9478603689        1.1184872554
 C          1.6194447746        3.4271627534        0.7511874665
 N          0.6948998927        1.3465047693        1.7426666223
 N          2.2297698420       -1.7891377752       -1.0242841713
 C          1.9659890028       -2.9325057588       -0.1650947809
 C          3.2329261402       -3.3201163064        0.5798763034
 C          0.8712898371       -2.4911967678        0.8186285159
 O          1.0707946052       -1.6178071411        1.6432677073
 N         -0.3058496986       -3.1260491700        0.6833162817
 O         -3.2854875903       -1.9113588027        0.0103035409
 O         -1.5569130602       -0.5588831653        0.5508338657
 C         -1.4876321298       -2.7262872957        1.4261882929
 C         -2.2482415963       -1.7027990391        0.5713857644
 C         -2.3581117956       -3.9294920834        1.7483717178
 H          2.6345533222        0.2406345007       -2.4675008231
 H          0.8395784268        1.6861668290       -3.5773999434
 H         -0.3313959330        0.4093892002       -3.1951013681
 H          1.0110227959        0.0740051609       -4.2877813381
 H          0.3655400371        4.0025874637        2.1124633266
 H          0.4114132981        1.3355449676       -0.8685148804
 H          2.7372455600        1.9218550291        1.8105882682
 H          0.8402879305        3.4744964034       -0.0202492378
 H          2.5429053420        3.8471104844        0.3407629240
 H          0.7029337320        1.5923612676        2.7279457565
 H          0.7315006397        0.3280244146        1.6847165694
 H          3.0082211094       -1.1911494813       -0.7573589445
 H          1.6034113572       -3.7567475723       -0.7895412014
 H          3.5308794319       -2.5040271723        1.2344041352
 H          4.0343782870       -3.5243360738       -0.1251071727
 H          3.0566170385       -4.2064257893        1.1837246626
 H         -0.4677561366       -3.6847651318       -0.1417706460
 H         -1.1279099563       -2.2257938649        2.3322214271
 H         -3.1996733449       -3.6224672819        2.3623936217
 H         -1.7803479164       -4.6773060817        2.2844731421
 H         -2.7482424645       -4.3625651466        0.8305354969
 C         -1.8995530555        0.4965752820       -0.2800708804
 C         -1.6938668629        1.7905193113        0.2180618107
 C         -2.3562931114        0.3020343250       -1.5741890566
 C         -1.9392774380        2.8757972378       -0.6209125682
 C         -2.3924724053        2.6857572125       -1.9123527194
 C         -2.6096754589        1.4002106156       -2.3816528262
 H         -2.5021891018       -0.6986840785       -1.9468051513
 H         -2.5886761488        3.5355123125       -2.5478126630
 H         -2.9759848731        1.2443836824       -3.3849829103
 H         -1.7909616383        3.8673025875       -0.2189160336
 C         -1.3715348190        2.0323725667        1.6449190022
 O         -1.2568196358        3.1503195615        2.1200737873
 H         -1.5817792508        1.1618026090        2.2885500164
