  56
        -94.14875782
 C         -2.3683980824       -0.0383798575       -2.1617906116
 C         -2.3967483166       -0.8424089302       -3.4500794260
 C         -1.0120748465        0.6892005744       -2.0001147642
 O          0.0214640807        0.2635103759       -2.4697236978
 O         -2.8035247645        0.6506433920        0.5708450212
 O         -4.5202353793       -0.3813837164        2.5065184657
 N         -2.5546707811       -0.9276991555       -1.0299607081
 C         -2.7102012469       -0.5338964519        0.2263781087
 C         -2.8555050874       -1.6502047220        1.2492070710
 C         -4.2986408689       -1.5631269497        1.7956191796
 N         -2.6062659978       -2.9416996268        0.6397076347
 N         -1.1214400287        1.8346032528       -1.3010303232
 C          0.0226460132        2.6190805717       -0.8925535271
 C         -0.3950322175        4.0661286657       -0.6499318096
 C          0.6976581883        2.0683357947        0.3681854013
 O          1.8965699975        2.1814999358        0.5507890678
 N         -0.1062102480        1.4708029783        1.2592902267
 O          2.8545100574        0.3354395525        2.6596402259
 O          1.6694658268       -0.4619145060        0.8923761103
 C          0.4884826364        0.8463833686        2.4278606927
 C          1.8497664913        0.2710468830        2.0134816113
 C          0.6473611617        1.8286999812        3.5828784941
 H         -3.1732697955        0.7079173577       -2.1477869793
 H         -1.5259887958       -1.4921126413       -3.4887133566
 H         -2.3588684230       -0.1725292894       -4.3046829521
 H         -3.3027203918       -1.4405785946       -3.5072397399
 H         -4.1384957029        0.3492391905        1.9913284297
 H         -2.4329813771       -1.9232058804       -1.1686909225
 H         -2.1772142490       -1.4127381979        2.0888123275
 H         -4.4779989874       -2.3873473968        2.4922505180
 H         -5.0010458184       -1.6629055846        0.9532573579
 H         -2.8487196102       -3.6859572961        1.2843322690
 H         -1.6137358931       -3.0216441116        0.4308481695
 H         -1.9880767502        1.9989902175       -0.8022301898
 H          0.7677200356        2.5611088878       -1.6937353868
 H          0.4708355981        4.6509999175       -0.3526168545
 H         -1.1390229081        4.1145536638        0.1430852698
 H         -0.8154691876        4.4942151193       -1.5566071177
 H         -1.0963514663        1.3416915246        1.0889026734
 H         -0.1475114286        0.0035259715        2.7194486300
 H          1.2745266781        2.6577155979        3.2663226667
 H          1.1288226109        1.3330236172        4.4204648381
 H         -0.3237670085        2.2056690188        3.8926756859
 C          2.6489907087       -0.7399784028       -0.0162160712
 C          2.2518803732       -1.5015319038       -1.1337734939
 C          3.9458616988       -0.2498959320        0.0643731497
 C          3.1815308613       -1.7429139809       -2.1475679092
 C          4.4699010881       -1.2619907580       -2.0585990149
 C          4.8456409348       -0.5144960235       -0.9513395915
 H          4.2369223816        0.3513802419        0.9092789467
 H          5.1793489346       -1.4574131007       -2.8481478308
 H          5.8496191807       -0.1241594155       -0.8795518704
 H          2.8714925115       -2.3165195088       -3.0087297277
 C          0.9076158656       -2.0439456479       -1.2701918700
 O          0.0380820116       -2.0730742746       -0.4281165997
 H          0.7319989530       -2.5035487028       -2.2625376533
