  56
        -94.14864146
 C         -3.6727269748        1.3895216119       -1.6092191275
 C         -4.1107165299        1.5687509967       -3.0530769312
 C         -2.3274944567        2.0854693333       -1.3414715917
 O         -1.6308376503        2.5605456906       -2.2239012816
 O         -3.7886143554        0.1993604955        0.9309034920
 O         -1.3679489988       -1.8623057416       -1.2997317270
 N         -3.5369870692       -0.0263480256       -1.3001290505
 C         -3.5940271416       -0.5077079887       -0.0482713704
 C         -3.3365795537       -2.0018416907        0.0728723658
 C         -1.8020260318       -2.1851267766       -0.0019118337
 N         -3.9372618097       -2.4926062382        1.2922971284
 N         -1.9936539222        2.0837766884       -0.0424757371
 C         -0.6599010482        2.4269525307        0.4249079447
 C         -0.6378380310        2.4801885025        1.9421197218
 C          0.2764796168        1.3344154697       -0.1087339038
 O          0.5520713342        0.3240577686        0.5181307689
 N          0.7552071467        1.5685500820       -1.3364907161
 O          1.4139841227       -1.6984434705       -1.1096041693
 O          2.9607102788       -0.2080288619       -0.3875124260
 C          1.4898624481        0.5404211402       -2.0569599569
 C          1.8751949543       -0.5851063948       -1.0860169823
 C          0.6710107593        0.0170281220       -3.2322834591
 H         -4.4193833884        1.7964133324       -0.9169051886
 H         -4.2589093879        2.6241557967       -3.2625681674
 H         -5.0385791908        1.0337668349       -3.2357485043
 H         -3.3395357659        1.1957211577       -3.7230144068
 H         -0.3951280838       -1.9306940577       -1.3053546304
 H         -3.1598279781       -0.6269690455       -2.0194979129
 H         -3.7768485126       -2.5296404888       -0.7827900643
 H         -1.5629706522       -3.2330799575        0.2333786285
 H         -1.3104745687       -1.5433811576        0.7432763264
 H         -3.8960939993       -1.7624450112        1.9982861050
 H         -3.4477538718       -3.3087781861        1.6402633956
 H         -2.6048405284        1.5940673547        0.6112321918
 H         -0.3738697766        3.3901209351       -0.0144385825
 H         -1.3603393387        3.2070447214        2.3032902685
 H          0.3526541279        2.7552590972        2.2949171156
 H         -0.8821637562        1.5001617261        2.3453487905
 H          0.2859634321        2.2719625901       -1.9036977933
 H          2.4288699299        0.9872280040       -2.4116956227
 H          0.4361358109        0.8366589557       -3.9068295965
 H         -0.2569711572       -0.4229683086       -2.8771849470
 H          1.2318931100       -0.7408773870       -3.7719498322
 C          3.3667896834       -0.9701893540        0.6964153888
 C          3.4690348982       -0.3316464609        1.9401146292
 C          3.6677627785       -2.3161275540        0.5706475411
 C          3.8772611539       -1.0754344530        3.0465681158
 C          4.1820614049       -2.4161562109        2.9209918758
 C          4.0766561711       -3.0329196992        1.6839484855
 H          3.5747543350       -2.7983241218       -0.3893795928
 H          4.4980155770       -2.9835381876        3.7831183554
 H          4.3113271728       -4.0816524554        1.5805402579
 H          3.9444900488       -0.5693524981        3.9980533372
 C          3.1346403709        1.0900719078        2.0896968716
 O          3.0324025940        1.6699604936        3.1410545223
 H          2.9801048486        1.6168145618        1.1308089662
