  56
        -94.15282735
 C         -1.4764397916        1.0515872711       -1.5699883944
 C         -1.3386261668       -0.1201030832       -2.5392205003
 C         -0.0941021355        1.4913818150       -1.0654014977
 O          0.8625874336        1.5406470223       -1.8286444518
 O         -3.7627471895        2.5267484496       -0.8189699857
 O         -2.0224034600        1.4269922355        2.3124580477
 N         -2.3963286353        0.7500836469       -0.4998440481
 C         -3.4379045116        1.5482792520       -0.1783477713
 C         -4.1581203134        1.1419546560        1.1136944666
 C         -3.3800087618        1.7846518018        2.2827575111
 N         -5.5301172644        1.6054087842        1.1668171051
 N         -0.0226197486        1.8381978762        0.2225793758
 C          1.1729620180        2.4180381220        0.8159531939
 C          0.8115311756        3.0979407105        2.1250225454
 C          2.2252356144        1.3140658313        1.0419250791
 O          2.4002308279        0.7628770445        2.1086815598
 N          2.9432503753        1.0506973143       -0.0686892659
 O          3.9741276581       -2.2617495818       -0.9565723535
 O          2.0172513062       -1.3442023770       -0.2873408194
 C          3.9339483861        0.0031681758       -0.0996715136
 C          3.3427724983       -1.3411639876       -0.5215671277
 C          5.1005831565        0.3746886158       -1.0082390713
 H         -1.8999361659        1.9167825199       -2.0984958439
 H         -0.5784963454        0.1180633263       -3.2777230610
 H         -2.2826159799       -0.3085550561       -3.0431289164
 H         -1.0369960961       -1.0202616690       -2.0061086792
 H         -1.9414977184        0.4639064673        2.4212692089
 H         -2.2034624658       -0.0578462983        0.0737512779
 H         -4.1448126607        0.0521219810        1.2294626282
 H         -3.8825883707        1.5204462978        3.2203597802
 H         -3.4048889815        2.8718103805        2.1703589939
 H         -6.0878771799        1.1191098361        0.4721254013
 H         -5.5474727289        2.5908433162        0.9158764366
 H         -0.8293241140        1.7643879805        0.8399701945
 H          1.5909104790        3.1387526988        0.1007138564
 H          0.0537545961        3.8585383367        1.9581320586
 H          1.6945822083        3.5612438473        2.5560159137
 H          0.4280157350        2.3621788110        2.8266183446
 H          2.5511413147        1.3639276594       -0.9562818768
 H          4.2803626538       -0.1315411158        0.9360052073
 H          4.7358479683        0.5989030467       -2.0080574994
 H          5.7952845557       -0.4579766469       -1.0681796947
 H          5.6157659848        1.2470246681       -0.6173473942
 C          1.1787175543       -2.3861930002       -0.5964253326
 C         -0.0302128445       -2.4274311687        0.1222822824
 C          1.4102353101       -3.3009578316       -1.6132666068
 C         -0.9895251263       -3.3863360913       -0.2112976741
 C         -0.7481799629       -4.3033397271       -1.2130234122
 C          0.4519953580       -4.2577674695       -1.9067572983
 H          2.3318552953       -3.2681708831       -2.1700148031
 H         -1.4891429046       -5.0483812437       -1.4571508698
 H          0.6456378202       -4.9684836402       -2.6954578324
 H         -1.9140441772       -3.3968202303        0.3468458864
 C         -0.2958956187       -1.4743484145        1.1956023916
 O         -1.4118436310       -1.2189416648        1.6058325319
 H          0.5876441637       -0.9749708867        1.6184610286
