  56
        -94.14863375
 C          2.3364802019       -0.5879705995        0.6920319692
 C          3.5849012787       -0.9029202661        1.5219740112
 C          1.9465438278       -1.7844142843       -0.1742719558
 O          2.0799046507       -1.7739776906       -1.3860853990
 O          1.3750463398        2.0527169570        0.9788024954
 O          1.2634428649        4.5642213157        0.0823717237
 N          2.5758223334        0.5331720815       -0.1828234557
 C          2.0228506120        1.7338048419       -0.0114097731
 C          2.2905576780        2.7100300761       -1.1626504945
 C          2.4042034524        4.1522803084       -0.6129448108
 N          3.4544845365        2.2841129991       -1.9223875307
 N          1.5049291974       -2.8551948278        0.5095712417
 C          0.9293719095       -4.0105032498       -0.1681818956
 C          1.0584763160       -5.2515237620        0.6975716667
 C         -0.5427233183       -3.6453017026       -0.4326365164
 O         -1.4610321812       -4.0740875278        0.2313795684
 N         -0.6914340148       -2.7606887970       -1.4475589734
 O         -0.8007150663       -0.8948766161        0.4522543798
 O         -2.8134498925       -0.1381843992       -0.2069493127
 C         -1.8614267970       -1.9111842135       -1.4641455422
 C         -1.7297086558       -0.9149980690       -0.3091207112
 C         -2.0149085182       -1.2065656316       -2.8037835281
 H          1.4954776016       -0.3237595537        1.3431415398
 H          4.4179806270       -1.1395203689        0.8636146057
 H          3.4065003905       -1.7485781686        2.1800284070
 H          3.8487028481       -0.0380843239        2.1254537011
 H          1.0931557023        3.8589334865        0.7378971330
 H          2.9776911264        0.3289581351       -1.0914219969
 H          1.4183431772        2.6484881264       -1.8246798889
 H          2.5421038323        4.8544188473       -1.4424846825
 H          3.2950401935        4.2063160025        0.0369577337
 H          4.3003099860        2.4467418478       -1.3842246110
 H          3.5288353228        2.8162075895       -2.7818834360
 H          1.2192507325       -2.7283072346        1.4687874232
 H          1.4632789431       -4.1244903351       -1.1166793126
 H          0.4321569650       -5.1492596373        1.5806461648
 H          2.0922763509       -5.4007106628        0.9981859875
 H          0.7193642506       -6.1213028900        0.1425116017
 H          0.1506469156       -2.3483872197       -1.8357572453
 H         -2.7345018787       -2.5400356795       -1.2498983834
 H         -2.9205021204       -0.6072361416       -2.8035915105
 H         -2.0716815432       -1.9430224195       -3.6011218727
 H         -1.1654161664       -0.5509686011       -2.9765971149
 C         -2.7973115570        0.8742838992        0.7434479871
 C         -1.9906061415        2.0076167888        0.5770560747
 C         -3.6402565820        0.7615308626        1.8371510742
 C         -2.0508112742        3.0141332557        1.5425195702
 C         -2.8798289638        2.8948411030        2.6395671698
 C         -3.6794655589        1.7707560333        2.7834672915
 H         -4.2522971358       -0.1216813146        1.9362820066
 H         -2.9083020029        3.6766369896        3.3829134697
 H         -4.3326920323        1.6750366376        3.6375462862
 H         -1.4271668195        3.8869254951        1.4187334612
 C         -1.1049367560        2.1921007659       -0.5781183853
 O         -0.8421290602        1.3711786377       -1.4239883063
 H         -0.6830024395        3.2118860370       -0.6263174064
