  56
        -94.14863265
 C          2.3354789576       -0.6167640159        0.6833146438
 C          3.5844214414       -0.9480645140        1.5061365139
 C          1.9231747547       -1.8094803787       -0.1778429226
 O          2.0449742091       -1.8025627715       -1.3907664153
 O          1.4037714496        2.0349747241        0.9654764139
 O          1.3001881887        4.5407650768        0.0553523744
 N          2.5857518129        0.4996052555       -0.1945717946
 C          2.0478036311        1.7071761083       -0.0242255022
 C          2.3281281383        2.6784408405       -1.1768227753
 C          2.4437513875        4.1221961082       -0.6315324832
 N          3.4961216778        2.2442789850       -1.9256189563
 N          1.4763911239       -2.8742260392        0.5122161840
 C          0.8846825268       -4.0257354857       -0.1578781972
 C          1.0155206738       -5.2674341862        0.7067005049
 C         -0.5878757962       -3.6509935457       -0.4051490088
 O         -1.5014305301       -4.0748814588        0.2685849747
 N         -0.7421921198       -2.7643685759       -1.4173324559
 O         -0.8147682131       -0.8849494296        0.4713974755
 O         -2.8214359161       -0.1054286048       -0.1809312340
 C         -1.9078525319       -1.9089978071       -1.4226115618
 C         -1.7503258382       -0.9001003872       -0.2819545787
 C         -2.0844825693       -1.2208403169       -2.7679780426
 H          1.5021581801       -0.3392803894        1.3387631389
 H          3.3987092963       -1.7903988163        2.1664307151
 H          3.8639603892       -0.0862381973        2.1067987619
 H          4.4100472483       -1.1968644924        0.8428719494
 H          1.1258687804        3.8398162568        0.7145466694
 H          2.9865785372        0.2895400397       -1.1021251645
 H          1.4611555354        2.6180164158       -1.8458651355
 H          2.5892907799        4.8208404527       -1.4626873052
 H          3.3306731890        4.1753882605        0.0236862946
 H          4.3379459640        2.4009888373       -1.3794933268
 H          3.5822734353        2.7759733110       -2.7842865735
 H          1.2009260343       -2.7429081496        1.4738057286
 H          1.4065695224       -4.1437583048       -1.1125769736
 H          0.4015612173       -5.1602267015        1.5978374985
 H          2.0520255188       -5.4241234280        0.9938618716
 H          0.6627831470       -6.1348599418        0.1564328060
 H          0.0977279449       -2.3572843843       -1.8154413358
 H         -2.7790683882       -2.5317412591       -1.1838837756
 H         -2.9880017061       -0.6184475597       -2.7581964460
 H         -2.1589597823       -1.9671019254       -3.5546617040
 H         -1.2361551483       -0.5706691328       -2.9651911517
 C         -2.7813827830        0.9244851124        0.7494796350
 C         -1.9581239201        2.0413021406        0.5545255456
 C         -3.6190490248        0.8481257260        1.8503846436
 C         -1.9970319583        3.0691569651        1.4984143809
 C         -2.8209852913        2.9860599384        2.6025796640
 C         -3.6366197706        1.8776287777        2.7752766135
 H         -4.2444641091       -0.0228524890        1.9717769519
 H         -2.8333041360        3.7841727204        3.3288236618
 H         -4.2859180466        1.8102316438        3.6350384220
 H         -1.3613862277        3.9297155441        1.3519633250
 C         -1.0764267908        2.1875816190       -0.6089802096
 O         -0.8306819628        1.3453298078       -1.4388942494
 H         -0.6392026986        3.1995383955       -0.6805088840
