  56
        -94.14863150
 C          2.3456361446       -0.6178786809        0.6774888749
 C          3.6013706836       -0.9508811741        1.4894147195
 C          1.9279832397       -1.8090003589       -0.1830409640
 O          2.0473618816       -1.8020523583       -1.3962839103
 O          1.4284815375        2.0354701988        0.9823771515
 O          1.3080794500        4.5424204178        0.0764535941
 N          2.5884012264        0.5005641469       -0.1997608153
 C          2.0584436791        1.7098398144       -0.0169366251
 C          2.3289597145        2.6850446178       -1.1685508634
 C          2.4471032149        4.1273279652       -0.6201515098
 N          3.4915431970        2.2539754075       -1.9275690147
 N          1.4801652834       -2.8726410599        0.5077951231
 C          0.8860319700       -4.0239052610       -0.1605543145
 C          1.0119404772       -5.2637408319        0.7074092898
 C         -0.5851060373       -3.6457768443       -0.4115161153
 O         -1.5012005429       -4.0666267616        0.2606093302
 N         -0.7348892971       -2.7605883217       -1.4255570533
 O         -0.8154671719       -0.8826080205        0.4660506300
 O         -2.8238571885       -0.1094495454       -0.1898775867
 C         -1.8991625078       -1.9034728845       -1.4355232346
 C         -1.7484855291       -0.8987119793       -0.2902906623
 C         -2.0645532146       -1.2092716314       -2.7792207766
 H          1.5176643108       -0.3422950825        1.3404539992
 H          3.8856489713       -0.0904385402        2.0898313104
 H          4.4214929973       -1.1978304544        0.8186781494
 H          3.4211941164       -1.7949421477        2.1490556268
 H          1.1416658862        3.8410783061        0.7372083713
 H          2.9793958625        0.2926492168       -1.1120263575
 H          1.4570600890        2.6256610014       -1.8312455879
 H          2.5854057651        4.8284910527       -1.4504276362
 H          3.3388149949        4.1797258857        0.0285436317
 H          4.3372222398        2.4076073000       -1.3865502027
 H          3.5720116058        2.7899314703       -2.7841612609
 H          1.2075653215       -2.7409681487        1.4701400237
 H          1.4089899469       -4.1458865665       -1.1141750463
 H          0.3969102117       -5.1523028079        1.5972777110
 H          2.0474941067       -5.4230182332        0.9966109453
 H          0.6572607520       -6.1314793633        0.1589290654
 H          0.1070247869       -2.3555913782       -1.8217537951
 H         -2.7733651014       -2.5253271711       -1.2056489576
 H         -2.9672585866       -0.6056114740       -2.7737413299
 H         -2.1340805878       -1.9520574357       -3.5696307389
 H         -1.2137957305       -0.5595019489       -2.9671559170
 C         -2.7943678354        0.9159049276        0.7455020805
 C         -1.9670908219        2.0327105072        0.5678740880
 C         -3.6472584399        0.8348844756        1.8344313994
 C         -2.0159923167        3.0543195827        1.5181665896
 C         -2.8549371337        2.9663292627        2.6105702382
 C         -3.6757333709        1.8589667690        2.7649755915
 H         -4.2759605542       -0.0355433598        1.9419107272
 H         -2.8752503378        3.7598658502        3.3416241211
 H         -4.3374338235        1.7881112497        3.6149447502
 H         -1.3765017058        3.9143050148        1.3856410048
 C         -1.0735476180        2.1873794376       -0.5854440844
 O         -0.8255293735        1.3539269210       -1.4235718906
 H         -0.6301048232        3.1975778181       -0.6408592239
