  56
        -94.14861871
 C         -3.8131364006        1.5782296615       -1.0250650927
 C         -4.1901650555        2.1022911987       -2.4000990000
 C         -2.7251305930        2.4406629271       -0.3684368630
 O         -2.1013447213        3.3037511054       -0.9681874898
 O         -3.8431889020       -0.3586319493        0.9657260495
 O         -1.4240257595       -1.2855293818       -2.3791130559
 N         -3.2819495372        0.2284586803       -1.1290218674
 C         -3.3167941363       -0.6346585328       -0.1012899885
 C         -2.6248628506       -1.9837396528       -0.3178697089
 C         -2.2243637952       -2.2810094216       -1.7805434690
 N         -1.5158389719       -2.0195213381        0.6223172934
 N         -2.4927527409        2.0992391681        0.9067837175
 C         -1.3556210039        2.5934043931        1.6655989401
 C         -1.5295894171        2.2460819643        3.1334399245
 C         -0.0943707500        1.9401734472        1.0854426255
 O          0.4831103818        0.9934160913        1.5981738932
 N          0.3241449459        2.4620468356       -0.0717559650
 O          0.6915514490       -0.4610228086       -0.6699945012
 O          2.6948639186        0.0694039057        0.2076621690
 C          1.4447564010        1.8365363420       -0.7507594418
 C          1.5102089094        0.3650659285       -0.3297469997
 C          1.2652973462        1.9291535883       -2.2613158949
 H         -4.6849847113        1.5373785879       -0.3615429111
 H         -4.9136503098        1.4417938995       -2.8701047662
 H         -3.3040624569        2.1705916813       -3.0267319878
 H         -4.6191672248        3.0960709763       -2.3097230263
 H         -0.6416121400       -1.1285526640       -1.8226376189
 H         -2.7035282839        0.0107754473       -1.9357583206
 H         -3.3371883567       -2.7570191161       -0.0020456592
 H         -3.1194205260       -2.3646570776       -2.4033085412
 H         -1.6997338510       -3.2476186500       -1.8008704748
 H         -0.8173514407       -1.3196117764        0.3934821895
 H         -1.0636126688       -2.9266719424        0.6052978591
 H         -3.0006536861        1.3047474652        1.2955188602
 H         -1.2867069973        3.6776887192        1.5130633210
 H         -0.6932377215        2.6331451206        3.7088885369
 H         -1.5580749224        1.1652208978        3.2501747199
 H         -2.4535674636        2.6730580684        3.5135854688
 H         -0.2777022228        3.1094651282       -0.5799186740
 H          2.3788331431        2.3194014614       -0.4337872051
 H          1.1551039936        2.9694576104       -2.5564192545
 H          0.3777940395        1.3777039927       -2.5639665983
 H          2.1285687273        1.5084458787       -2.7703856428
 C          2.9080596534       -1.2128980040        0.6975735137
 C          4.0586033740       -1.9048024455        0.2978839379
 C          2.0179114315       -1.7810409821        1.5945414670
 C          4.2871309974       -3.1803162095        0.8179762931
 C          3.3962209931       -3.7523889916        1.7028986180
 C          2.2646460964       -3.0498108588        2.0914654323
 H          1.1511477279       -1.2187919952        1.9044796122
 H          3.5810149426       -4.7411241355        2.0943149115
 H          1.5669876162       -3.4868341253        2.7896585202
 H          5.1789741495       -3.6997363690        0.5006466133
 C          5.0121623422       -1.3212327534       -0.6534887533
 O          6.0032503633       -1.8706432714       -1.0619341598
 H          4.7468067887       -0.2993839869       -0.9835639544
