  56
        -94.14860155
 C          0.0555898111       -2.6953192271       -2.0429554814
 C         -0.3925899219       -2.5702053931       -3.4894541906
 C         -1.1526109508       -2.7706159455       -1.0918290315
 O         -2.2979674906       -2.5515619332       -1.4502021977
 O          1.9370366518       -2.5286541346        0.0565035727
 O          4.3059480144        0.8251521430        0.7203562777
 N          0.8725013555       -1.5503740538       -1.6788811338
 C          1.7193904491       -1.5492334752       -0.6447102876
 C          2.4016862691       -0.2056488293       -0.4091907099
 C          3.7432305571       -0.4029509061        0.3195003618
 N          2.5166332421        0.5417476813       -1.6525599726
 N         -0.8085322085       -3.1015107352        0.1616412811
 C         -1.7336363439       -2.9898355760        1.2808259820
 C         -1.1488511380       -3.6731459100        2.5034064408
 C         -1.9267502576       -1.4818562689        1.5064595102
 O         -1.2466657802       -0.8254136173        2.2706573985
 N         -2.8880391456       -0.9416116734        0.7252220750
 O         -0.7481894038        0.4668789433       -0.4308151906
 O         -1.2074598895        2.0540071093        1.0946609849
 C         -2.9271861868        0.5045317415        0.6024552695
 C         -1.5050226044        0.9872507796        0.3451424243
 C         -3.8178801071        0.9170419967       -0.5611157553
 H          0.6696553942       -3.5920541742       -1.8933255564
 H         -1.0315779064       -1.6975319201       -3.5988398822
 H         -0.9654418269       -3.4480202646       -3.7744171505
 H          0.4673869847       -2.4742339721       -4.1468045375
 H          3.7433058599        1.2122326987        1.4007754537
 H          0.6297832913       -0.6494795084       -2.0678859639
 H          1.7267379454        0.3618743309        0.2479440354
 H          4.4690141977       -0.8546119576       -0.3623812604
 H          3.5986312884       -1.0781329126        1.1699463902
 H          3.1152216079        0.0328149812       -2.2976553721
 H          2.9762983853        1.4259671651       -1.4553850796
 H          0.1834877796       -3.1440816669        0.3909625559
 H         -2.6866762558       -3.4409875861        0.9828382862
 H         -0.2537861814       -3.1425277309        2.8193346709
 H         -0.8951663885       -4.7049505587        2.2752917711
 H         -1.8674068934       -3.6531505013        3.3181712662
 H         -3.1707255889       -1.4762782280       -0.0940559026
 H         -3.2724318156        0.9408184765        1.5462644556
 H         -3.4732932044        0.4323729898       -1.4719484007
 H         -3.7708632838        1.9929843282       -0.7039754809
 H         -4.8451960030        0.6219210501       -0.3645567334
 C          0.0523972727        2.6066252364        0.9731786853
 C          0.5238296413        3.1044103112       -0.2485517238
 C          0.8543154246        2.6380227352        2.1052534331
 C          1.8201458643        3.6193303951       -0.3012068229
 C          2.6131276373        3.6656723442        0.8279326277
 C          2.1258909619        3.1788102998        2.0336931871
 H          0.4651703119        2.2276991834        3.0238577328
 H          3.6118124735        4.0704029034        0.7726275161
 H          2.7425300266        3.2132846693        2.9196259692
 H          2.1885877288        4.0020404596       -1.2417927844
 C         -0.3105423140        3.1261587970       -1.4599737714
 O         -1.5124025721        3.0755899511       -1.4946830458
 H          0.2838660456        3.2254844039       -2.3889378173
