  56
        -94.14860074
 C         -0.1864425275       -3.3714424651        1.0215702044
 C         -0.0539188186       -4.8506624673        0.6888557539
 C         -1.6660200184       -2.9312483689        1.0081800890
 O         -2.5625939567       -3.6395800259        0.6030596034
 O          1.9197420673       -1.4851158036        1.4607229210
 O          3.8380030789        0.0855155733        0.3498488413
 N          0.5077178404       -2.5497149051        0.0480498165
 C          1.4662333768       -1.6649000881        0.3397227205
 C          1.9242081629       -0.8302330414       -0.8608225448
 C          3.4523054342       -0.6177913853       -0.7952453104
 N          1.4378336817       -1.3983707227       -2.1089306502
 N         -1.8326960043       -1.6637545998        1.4276332818
 C         -3.0853846165       -0.9511349470        1.3316604164
 C         -3.4147552006       -0.2551418165        2.6479696145
 C         -3.0853222940        0.0834557591        0.1932455806
 O         -3.9197220328        0.9572674230        0.1129691319
 N         -2.1135232916       -0.0917617558       -0.7273206071
 O          0.2388324770        1.4031531314       -2.6876035678
 O         -0.4121829358        2.0401276092       -0.6281173940
 C         -1.9557211552        0.7734574071       -1.8727710744
 C         -0.5878541285        1.4452603848       -1.8142257788
 C         -2.1195390971        0.0042873007       -3.1794325339
 H          0.2615665341       -3.1466186401        1.9954463947
 H         -0.5513147576       -5.4410956614        1.4525274608
 H          0.9935607947       -5.1366228443        0.6405369195
 H         -0.5329842800       -5.0596403833       -0.2646058241
 H          3.4258784940       -0.3745674345        1.1046991265
 H          0.2610075107       -2.6339615812       -0.9315917175
 H          1.4594654708        0.1511874372       -0.7263677487
 H          3.7758627683       -0.0227639123       -1.6556595463
 H          3.9508350246       -1.6009347429       -0.8409313115
 H          2.0995909655       -2.0829401211       -2.4623615527
 H          1.3455592966       -0.6681038081       -2.8079112469
 H         -1.0430005207       -1.1128608264        1.7416882634
 H         -3.8570040301       -1.6930685254        1.0885685896
 H         -2.5945249607        0.4032973307        2.9250398670
 H         -3.5712345720       -0.9850890314        3.4374759987
 H         -4.3130857642        0.3418811881        2.5219847977
 H         -1.4257677194       -0.8159942432       -0.5903100962
 H         -2.7305942761        1.5454531922       -1.7689210315
 H         -1.3627010263       -0.7735402187       -3.2515842289
 H         -2.0045686981        0.6765367391       -4.0245757828
 H         -3.1047858338       -0.4511070326       -3.2151605273
 C          0.7924852475        2.6434081225       -0.3146042741
 C          1.3997637709        2.3203075709        0.9120260550
 C          1.3786522592        3.5654370102       -1.1667121363
 C          2.6014385029        2.9461880678        1.2463301442
 C          3.1888401057        3.8557920790        0.3909695687
 C          2.5757393010        4.1651656546       -0.8130665577
 H          0.9003346547        3.8042548106       -2.1035462638
 H          4.1245493801        4.3216008140        0.6572671219
 H          3.0292416907        4.8771253211       -1.4856278414
 H          3.0768743892        2.6916594253        2.1810037024
 C          0.8330384693        1.3265232163        1.8251670665
 O         -0.1358701109        0.6367539271        1.6155500992
 H          1.3952751235        1.2340638509        2.7716561392
