  56
        -94.14859266
 C          2.8053084009       -0.4255168433       -1.2075178812
 C          2.9357284010       -0.6698068682       -2.7017792203
 C          2.3422881502       -1.6971792170       -0.4795056602
 O          2.1241836429       -2.7497000244       -1.0565670175
 O          2.7784876409        1.3209825149        0.9651746769
 O          2.6998195010        4.1728617823        0.5257690192
 N          1.8475520714        0.6400252561       -0.9659742916
 C          1.9234276038        1.4460498055        0.0929925793
 C          0.8893810211        2.5691653100        0.1477441482
 C          1.4568483589        3.7285419520        0.9998111598
 N          0.5054524191        2.9638054426       -1.1992337343
 N          2.1808040508       -1.5201007643        0.8389372529
 C          1.5422757617       -2.5013316122        1.7033026116
 C          1.8101770111       -2.1650577968        3.1588926729
 C          0.0334412000       -2.4710447970        1.3848056672
 O         -0.7951734276       -1.9210555471        2.0855642413
 N         -0.2652443947       -3.0783981897        0.2284546624
 O         -3.4446117499       -1.7526076620        0.5688138845
 O         -1.6169421993       -0.6635711693       -0.1939617596
 C         -1.6009601573       -3.0246760727       -0.3266811938
 C         -2.3290701687       -1.7653226284        0.1335763069
 C         -1.5315735720       -3.0280499586       -1.8518540388
 H          3.7615395245       -0.1103675266       -0.7697846707
 H          3.5976628934       -1.5124393134       -2.8784682749
 H          3.3330596673        0.2110997806       -3.1985607190
 H          1.9598865915       -0.9065031271       -3.1184993691
 H          3.3397692955        3.4715128412        0.7087441391
 H          1.0490377054        0.6921097121       -1.5890442575
 H         -0.0023847343        2.1774507186        0.6549180484
 H          1.5267946911        3.4020898460        2.0443542759
 H          0.7789521992        4.5850832437        0.9434026321
 H          1.3309925068        3.2791287647       -1.7020397650
 H         -0.1301898198        3.7534943412       -1.1477781754
 H          2.4015588172       -0.6172639463        1.2448051151
 H          1.9361872566       -3.4916755385        1.4444722573
 H          2.8793901910       -2.0993885725        3.3430778166
 H          1.3840659937       -2.9326420729        3.7987442992
 H          1.3409724995       -1.2160710328        3.4077915596
 H          0.4925273950       -3.3677625069       -0.3867423160
 H         -2.1898761701       -3.8793179692        0.0355076184
 H         -2.5346180644       -3.0329059140       -2.2709837529
 H         -1.0029198408       -3.9141993859       -2.1944976439
 H         -1.0055894775       -2.1419801969       -2.2008471564
 C         -2.1397051727        0.5735373658        0.0919000329
 C         -2.0821888416        1.5688960871       -0.8993627388
 C         -2.7149911601        0.8430212767        1.3269972283
 C         -2.6746931030        2.8058578613       -0.6318849146
 C         -3.2632630081        3.0652054978        0.5878757665
 C         -3.2655620084        2.0871323701        1.5731978086
 H         -2.7168193804        0.0717772403        2.0806203442
 H         -3.7163331762        4.0262569756        0.7779002014
 H         -3.7074718877        2.2913388820        2.5362689051
 H         -2.6585582805        3.5642992927       -1.4013532896
 C         -1.3896674918        1.3700193405       -2.1732038185
 O         -0.6576388943        0.4490672941       -2.4578405743
 H         -1.6098257896        2.1586293081       -2.9163455604
