  56
        -94.14859026
 C         -3.6949800772        1.2623415760       -1.6672274295
 C         -4.0053080288        1.4911333529       -3.1374223040
 C         -2.5033897772        2.1203508077       -1.2102191176
 O         -1.8273985010        2.7892034497       -1.9777490383
 O         -3.8939813347       -0.1430199479        0.7736075948
 O         -1.2927785533       -1.8624283899       -1.7850012635
 N         -3.4017509386       -0.1425020161       -1.4349294373
 C         -3.5062617017       -0.7269318484       -0.2315697114
 C         -3.0832036530       -2.1972889977       -0.2027156784
 C         -1.5677979980       -2.2641756185       -0.4620791724
 N         -3.3853624193       -2.8485947009        1.0543138328
 N         -2.2809387464        2.0405653967        0.1073781789
 C         -1.1507910091        2.6711203100        0.7678297735
 C         -1.3441893011        2.6225593877        2.2735323591
 C          0.1325948007        1.9323635193        0.3536518657
 O          0.6814389676        1.0875243951        1.0398827343
 N          0.6068101149        2.2983957121       -0.8447299867
 O          1.1191662110       -0.6529312655       -1.1096185769
 O          2.9902381980        0.0738707905       -0.0810888803
 C          1.7948172810        1.6522675861       -1.3731212531
 C          1.8817622745        0.2312557368       -0.8065409448
 C          1.7271572710        1.5942331535       -2.8941183649
 H         -4.5583163749        1.5172793107       -1.0398135089
 H         -4.8352832187        0.8635442260       -3.4501908866
 H         -3.1306915775        1.2588976308       -3.7402820217
 H         -4.2624961295        2.5337062977       -3.3005814484
 H         -0.3885551625       -1.5140578218       -1.7917884327
 H         -2.8559755083       -0.6353744441       -2.1338886167
 H         -3.5927241723       -2.7359034603       -1.0096101882
 H         -1.2398600887       -3.2985481530       -0.2970771508
 H         -1.0457309887       -1.6199547831        0.2558097575
 H         -4.3846651111       -2.8088976147        1.2277050635
 H         -2.9397259619       -2.3377468907        1.8113256193
 H         -2.8637039850        1.4156434592        0.6635914714
 H         -1.0794789715        3.7061584486        0.4090876556
 H         -2.2894404886        3.0833932891        2.5477900386
 H         -0.5333443056        3.1487869938        2.7695320614
 H         -1.3356393119        1.5885916858        2.6100962113
 H         -0.0104563864        2.8023869958       -1.4814223851
 H          2.6847197659        2.2032267850       -1.0396250077
 H          0.8765490018        0.9902508109       -3.2016606319
 H          2.6361207906        1.1545315822       -3.2965450393
 H          1.6134494111        2.5973127161       -3.2969240339
 C          3.2324216657       -1.1470551628        0.5360654616
 C          3.4775903681       -1.1574972970        1.9143518481
 C          3.2795976490       -2.3228395841       -0.1953665311
 C          3.7818427796       -2.3702379592        2.5320376914
 C          3.8243366123       -3.5434201624        1.8054224754
 C          3.5697000434       -3.5176354680        0.4431680691
 H          3.0882829984       -2.3021298440       -1.2568790459
 H          4.0530836835       -4.4774327209        2.2953737750
 H          3.5994935030       -4.4309452266       -0.1315184306
 H          3.9718991750       -2.3590987577        3.5949306303
 C          3.3925173471        0.0735636777        2.7178351876
 O          3.6912717352        0.1459924977        3.8827087287
 H          3.0124192102        0.9468021325        2.1631575307
