  56
        -94.15273102
 C         -1.6103017600        1.1457745230       -2.2346717893
 C         -0.7832163289        0.4453094096       -3.3090985553
 C         -0.6861993248        1.8702410698       -1.2343823595
 O          0.4679662408        2.1409354242       -1.4940499578
 O         -0.7947621949       -0.7390649732       -0.3234478371
 O         -1.8621626007       -3.4458189857        0.6274897472
 N         -2.4571891962        0.2071050439       -1.5217605489
 C         -1.9772582717       -0.6422637486       -0.5887592582
 C         -3.1042506187       -1.3958595972        0.1135326913
 C         -2.5789844644       -2.3779115804        1.1793752050
 N         -3.9900928471       -0.3653376461        0.6531372990
 N         -1.3230352117        2.2503207193       -0.1084955788
 C         -0.6301166488        2.5948388832        1.1204088112
 C         -1.3552802826        3.7236246764        1.8416198941
 C         -0.6468628465        1.3058788971        1.9622677203
 O         -1.7045685737        0.7980416359        2.3000438297
 N          0.5617512288        0.8114223848        2.2560608984
 O          0.7938051960       -2.5604600782        1.2870361725
 O          1.8505568480       -0.6616548073        0.6406107427
 C          0.7523937058       -0.5610817122        2.6768672308
 C          1.1003335003       -1.4095288971        1.4442665800
 C          1.8891779297       -0.6613184678        3.6918243369
 H         -2.2576810511        1.9015087100       -2.6931976581
 H         -0.0956354324        1.1558786072       -3.7576647528
 H         -1.4314727569        0.0283639933       -4.0753676291
 H         -0.2042620292       -0.3532455900       -2.8534708504
 H         -0.9290662285       -3.1957879472        0.5750017753
 H         -3.4581784827        0.2598328177       -1.6237726161
 H         -3.6540479476       -1.9694922886       -0.6442577418
 H         -3.4442062887       -2.8100438778        1.6978679561
 H         -1.9825864413       -1.8162206396        1.9065735165
 H         -3.4787632505        0.1379701964        1.3783929612
 H         -4.7842291462       -0.8040294452        1.1096090689
 H         -2.2629412014        1.9056419472        0.0443229969
 H          0.3908571203        2.8786153513        0.8551251414
 H         -1.4595545115        4.5840539819        1.1858681283
 H         -0.7942565687        4.0165223990        2.7247507787
 H         -2.3424964922        3.3869306669        2.1513942106
 H          1.3727920572        1.2250017603        1.7977818614
 H         -0.1852201329       -0.9259325587        3.1064099343
 H          2.8051007188       -0.2652491134        3.2593181388
 H          2.0465423290       -1.6992760951        3.9729037450
 H          1.6420044495       -0.0865176440        4.5804463554
 C          2.1158095310       -0.8727726072       -0.6825310941
 C          2.5817019280        0.2625723193       -1.3741618961
 C          1.9460500870       -2.0811818104       -1.3411754778
 C          2.8660643221        0.1420377149       -2.7331525333
 C          2.6962565114       -1.0607423722       -3.3897014721
 C          2.2335717009       -2.1666962875       -2.6926939656
 H          1.5787682102       -2.9392844726       -0.8029145103
 H          2.9167750422       -1.1394727266       -4.4433946023
 H          2.0926586231       -3.1075170633       -3.2032948440
 H          3.2136589209        1.0119466432       -3.2700951295
 C          2.7495388123        1.5668309575       -0.7223166798
 O          2.6182246201        1.8203110207        0.4536386576
 H          3.0771223461        2.3523763903       -1.4246266681
