  56
        -94.14858911
 C         -2.1449444034       -0.2016784423       -2.0165051724
 C         -1.5758092026       -1.1328835416       -3.0726107099
 C         -1.1117178593        0.8263912566       -1.5308585598
 O          0.0945565948        0.6723541406       -1.5967783770
 O         -3.9704481640        0.6448449774       -0.0767297421
 O         -1.7947901231       -0.9977347472        2.5517289910
 N         -2.5866489180       -0.9585112351       -0.8553698638
 C         -3.4623266163       -0.4672609314        0.0287198309
 C         -3.8135916943       -1.3885244667        1.1879996596
 C         -3.1809258479       -0.8234716856        2.4900357771
 N         -5.2619196757       -1.4788717988        1.2479731643
 N         -1.6952141576        1.9183779420       -0.9984093188
 C         -0.8791284660        2.8839069794       -0.2920379116
 C         -1.7677500498        3.8757104456        0.4478567377
 C          0.0023123236        2.1291875343        0.7102169471
 O         -0.4314499243        1.2085210376        1.3753270969
 N          1.2518370394        2.6135030092        0.8459904061
 O          3.9105919882        1.4770835964       -0.0418417288
 O          2.5686228792       -0.1797727011        0.7211270650
 C          2.2563700137        1.9460961151        1.6559476031
 C          3.0487717359        1.0636069650        0.6833218015
 C          3.1582895678        2.9608543830        2.3418048427
 H         -3.0166112011        0.3399342655       -2.4039174985
 H         -0.6869739067       -1.6273783540       -2.6913404283
 H         -1.2999942483       -0.5622280229       -3.9552874235
 H         -2.3133523986       -1.8826096601       -3.3463780050
 H         -1.3520963974       -0.2751286678        2.0820957670
 H         -2.0530777949       -1.7959350282       -0.6390681652
 H         -3.4056263331       -2.3907876670        1.0174347446
 H         -3.5985426355       -1.3819373244        3.3369027262
 H         -3.4662796438        0.2321475304        2.5949154019
 H         -5.6543149934       -0.5445655241        1.1756803472
 H         -5.5572970325       -1.8814633603        2.1310755277
 H         -2.6757456838        1.8290987951       -0.7257049064
 H         -0.2426559937        3.3996396079       -1.0226021084
 H         -2.4183625485        4.3878501702       -0.2564113058
 H         -1.1618505242        4.6115287597        0.9707187558
 H         -2.3818024798        3.3456953826        1.1723566282
 H          1.6048095889        3.2714954751        0.1671827597
 H          1.7212654457        1.3140257785        2.3704476598
 H          3.8381342684        2.4547219707        3.0213709584
 H          2.5604372672        3.6715309814        2.9058660808
 H          3.7461510066        3.4933729806        1.5974328837
 C          2.9426131100       -1.1573334013       -0.1825678366
 C          1.9460962935       -2.0642893784       -0.5746530623
 C          4.2337437597       -1.2839587145       -0.6697534438
 C          2.2746861719       -3.0805306241       -1.4717200476
 C          3.5588141888       -3.2022599482       -1.9625303833
 C          4.5342481057       -2.3048147838       -1.5577163420
 H          4.9980153461       -0.5875757604       -0.3658040617
 H          3.8026234494       -3.9915554258       -2.6569741122
 H          5.5421368605       -2.3951704356       -1.9336757228
 H          1.4940742542       -3.7664386763       -1.7658511581
 C          0.5725236693       -1.9446142158       -0.0797120494
 O         -0.3412448324       -2.6428334401       -0.4594240940
 H          0.4138747019       -1.1611920184        0.6746455009
