  56
        -94.14858821
 C         -3.6410456228        1.2005909136       -1.6937139765
 C         -3.9282962221        1.3917209679       -3.1740011511
 C         -2.4767379859        2.0945687514       -1.2340177811
 O         -1.8046591110        2.7649723903       -2.0036468811
 O         -3.8422644464       -0.1561843368        0.7770421953
 O         -1.2433747679       -1.9435464481       -1.7714993950
 N         -3.3280205971       -0.1934918467       -1.4260995923
 C         -3.4412936607       -0.7560166588       -0.2136489084
 C         -3.0142415836       -2.2246673817       -0.1539649166
 C         -1.5025133000       -2.3017797764       -0.4324969313
 N         -3.3009027443       -2.8450308380        1.1222965504
 N         -2.2777678390        2.0489701965        0.0887503738
 C         -1.1783973993        2.7251324489        0.7563716785
 C         -1.3963110537        2.6972033980        2.2592165246
 C          0.1304562781        2.0143917512        0.3757803877
 O          0.6808521606        1.1831124887        1.0768153398
 N          0.6243148181        2.3867942430       -0.8140773334
 O          1.0680890451       -0.5383631539       -1.1163360896
 O          2.9645445911        0.0862700803       -0.0677884767
 C          1.8278383552        1.7451251073       -1.3120949917
 C          1.8669463683        0.3054120704       -0.7919689836
 C          1.8282077642        1.7404424096       -2.8353737466
 H         -4.5206575411        1.4535871365       -1.0881968068
 H         -4.1993716529        2.4260499708       -3.3648692457
 H         -4.7421023174        0.7436918787       -3.4876340515
 H         -3.0391751795        1.1609989633       -3.7558499706
 H         -0.3668298363       -1.5326955358       -1.7915131495
 H         -2.7785239387       -0.6996690961       -2.1131887932
 H         -3.5351679340       -2.7826503066       -0.9403654728
 H         -1.1740642775       -3.3313998399       -0.2408687346
 H         -0.9701220160       -1.6369964853        0.2577859368
 H         -4.2975337613       -2.7962558861        1.3086265856
 H         -2.8425920795       -2.3185942519        1.8608855454
 H         -2.8529642983        1.4181266092        0.6468536874
 H         -1.1310317457        3.7551090536        0.3797706917
 H         -0.6145301284        3.2626275770        2.7586974725
 H         -1.3553389763        1.6705130956        2.6150689128
 H         -2.3627326897        3.1271383502        2.5086524198
 H          0.0033650498        2.8579767512       -1.4718713751
 H          2.7081074571        2.2710683685       -0.9189851199
 H          2.7451049634        1.2943349343       -3.2120750933
 H          1.7542823745        2.7590600642       -3.2071935966
 H          0.9793746778        1.1671032624       -3.2011516270
 C          3.1616754660       -1.1590585950        0.5158781715
 C          3.4124250933       -1.2132568274        1.8921528261
 C          3.1612635487       -2.3169696299       -0.2449767595
 C          3.6750138893       -2.4514097393        2.4775011428
 C          3.6701263171       -3.6067862541        1.7215912437
 C          3.4094062993       -3.5374418149        0.3620556301
 H          2.9669222393       -2.2627839903       -1.3047875029
 H          3.8666893425       -4.5605788479        2.1867336575
 H          3.4018596042       -4.4365130392       -0.2353172838
 H          3.8709199500       -2.4739717330        3.5391452264
 C          3.3753686721       -0.0003712872        2.7270109423
 O          3.6910429419        0.0327673182        3.8891490392
 H          3.0132973904        0.8972902582        2.2000082477
