  56
        -94.14858623
 C         -2.1684520593       -0.1894561600       -2.0137228123
 C         -1.6354242256       -1.1409221732       -3.0706218719
 C         -1.1055616209        0.8178292953       -1.5484730227
 O          0.0957348482        0.6390652342       -1.6351995253
 O         -3.9545304630        0.7070645824       -0.0590117146
 O         -1.8176999909       -0.9585006649        2.5884978180
 N         -2.6128932469       -0.9291419809       -0.8426395449
 C         -3.4694197234       -0.4152262399        0.0471338864
 C         -3.8329757468       -1.3241431110        1.2126256627
 C         -3.1993672551       -0.7570889683        2.5129868416
 N         -5.2826955330       -1.3979874042        1.2671492002
 N         -1.6584021663        1.9232280158       -1.0101931830
 C         -0.8135509935        2.8725005106       -0.3167979300
 C         -1.6713454961        3.9033527792        0.4061426846
 C          0.0441169685        2.1067259576        0.6976208348
 O         -0.4046443803        1.1815332917        1.3459841653
 N          1.2926126569        2.5855869735        0.8609965626
 O          3.9614656443        1.4282500409        0.0114599221
 O          2.5651574610       -0.2094845054        0.7180015058
 C          2.2810461249        1.9061024969        1.6812489303
 C          3.0760551105        1.0218032700        0.7119412577
 C          3.1824367716        2.9093332789        2.3837839722
 H         -3.0321655916        0.3700007448       -2.3935318741
 H         -1.3457306440       -0.5815517989       -3.9560397753
 H         -2.3984541555       -1.8668689354       -3.3387081786
 H         -0.7613492514       -1.6632666358       -2.6923987850
 H         -1.3578688684       -0.2623656379        2.0960575795
 H         -2.0930585152       -1.7752070311       -0.6271543013
 H         -3.4360130257       -2.3322255204        1.0505247296
 H         -3.6340003394       -1.2968833262        3.3632599613
 H         -3.4640048392        0.3054161761        2.6034165213
 H         -5.6642698444       -0.4594650435        1.1918893770
 H         -5.5858109935       -1.7953944835        2.1500020885
 H         -2.6365115745        1.8546247372       -0.7230300744
 H         -0.1600065625        3.3561058025       -1.0541903377
 H         -1.0435633720        4.6276646957        0.9191219816
 H         -2.3036130616        3.4045185879        1.1370933373
 H         -2.3041454113        4.4248672882       -0.3074082822
 H          1.6587359380        3.2517765023        0.1973153314
 H          1.7313258458        1.2747875264        2.3852418954
 H          2.5834891086        3.6223236416        2.9437554895
 H          3.7848732233        3.4403239132        1.6500523765
 H          3.8488955047        2.3937553449        3.0694598462
 C          2.9250001398       -1.1824492719       -0.1962839118
 C          1.9150225323       -2.0732990535       -0.5916242505
 C          4.2119825380       -1.3210758366       -0.6911413795
 C          2.2263987826       -3.0855165163       -1.4991583020
 C          3.5063456520       -3.2189176722       -1.9978379968
 C          4.4948883234       -2.3374334107       -1.5900472259
 H          4.9868731386       -0.6375654476       -0.3850688809
 H          3.7366266587       -4.0047302626       -2.7007998888
 H          5.4996310109       -2.4367318689       -1.9721476973
 H          1.4357832954       -3.7589028477       -1.7954449338
 C          0.5453743972       -1.9415808338       -0.0888151404
 O         -0.3770136533       -2.6309836981       -0.4638266860
 H          0.3983208164       -1.1582962221        0.6679738998
