  56
        -94.14858113
 C         -2.1074857440       -0.2169361145       -2.0080892202
 C         -1.5038892401       -1.1427999753       -3.0496436962
 C         -1.0983981422        0.8257297011       -1.5035355852
 O          0.1111540778        0.6871434468       -1.5430626222
 O         -3.9849291919        0.6136897216       -0.1125392850
 O         -1.7922420065       -1.0077675313        2.5179416953
 N         -2.5642457345       -0.9753354681       -0.8538293436
 C         -3.4641736714       -0.4908866877        0.0095704064
 C         -3.8201833069       -1.4076384350        1.1703832909
 C         -3.1798704934       -0.8414179904        2.4688116432
 N         -5.2683042158       -1.4904074204        1.2359461976
 N         -1.7061356190        1.9106134641       -0.9852786390
 C         -0.9169120584        2.8913859834       -0.2684776540
 C         -1.8327751493        3.8479757427        0.4842216579
 C         -0.0140337965        2.1488480471        0.7239645497
 O         -0.4353854072        1.2381988835        1.4107429888
 N          1.2379831527        2.6345015957        0.8279317337
 O          3.8715758146        1.4999217172       -0.1141830952
 O          2.5779702840       -0.1634529231        0.7142362068
 C          2.2598637220        1.9745835524        1.6217461686
 C          3.0364874438        1.0866852983        0.6415769495
 C          3.1737915947        2.9964263089        2.2812514739
 H         -2.9776851710        0.3121738292       -2.4156248990
 H         -0.6159211222       -1.6237708190       -2.6496825684
 H         -1.2182717962       -0.5703348389       -3.9280419987
 H         -2.2250030587       -1.9035355741       -3.3363787758
 H         -1.3555245554       -0.2677195170        2.0701710238
 H         -2.0262669889       -1.8057766165       -0.6215760021
 H         -3.4170857179       -2.4121815400        1.0017167323
 H         -3.5884277853       -1.4043866637        3.3172829913
 H         -3.4707094439        0.2120439762        2.5785117108
 H         -5.6565726700       -0.5554172787        1.1507860694
 H         -5.5633396262       -1.8789694470        2.1253623511
 H         -2.6922520375        1.8128495142       -0.7370163677
 H         -0.2966504794        3.4349464589       -0.9929456735
 H         -2.5004625531        4.3482958225       -0.2125294641
 H         -1.2473327954        4.5956544902        1.0135153080
 H         -2.4282467701        3.2919515680        1.2046582292
 H          1.5778235110        3.2795060398        0.1301583817
 H          1.7410258353        1.3471224797        2.3520539823
 H          3.7423522149        3.5267073396        1.5204587769
 H          3.8708940129        2.4965829113        2.9479030027
 H          2.5864662724        3.7083344706        2.8547196443
 C          2.9470668887       -1.1490712855       -0.1824946452
 C          1.9543797178       -2.0710011295       -0.5479181247
 C          4.2318150784       -1.2685776411       -0.6880653269
 C          2.2797848025       -3.0953904122       -1.4369537259
 C          3.5576545924       -3.2106473820       -1.9452321612
 C          4.5296356423       -2.2979119442       -1.5670493529
 H          4.9930281063       -0.5601123972       -0.4050192862
 H          3.7991575536       -4.0064460724       -2.6330252791
 H          5.5325370698       -2.3828825865       -1.9573257778
 H          1.5018426827       -3.7927217891       -1.7106873237
 C          0.5865814484       -1.9571565319       -0.0359877362
 O         -0.3288562799       -2.6580155151       -0.4066780056
 H          0.4334632704       -1.1750605028        0.7208603055
