  56
        -94.14854922
 C          1.9784015324       -2.0592377582       -0.0863675522
 C          3.0553425671       -3.1350257701       -0.2354542043
 C          0.6760341820       -2.5536229210       -0.7191270508
 O          0.4664147076       -2.4079128886       -1.9133622602
 O          2.2075385367        0.5117484459        1.0107074561
 O          2.5817608579        2.5948844087       -3.2610529067
 N          2.3683669729       -0.8495911226       -0.7800145354
 C          2.3677835872        0.3561441359       -0.1924781252
 C          2.6691173962        1.5690800001       -1.0822658062
 C          2.3325442965        1.3990406145       -2.5692512137
 N          1.9465067162        2.7468173031       -0.6114165348
 N         -0.1616511390       -3.1931668897        0.1096164677
 C         -1.4821803061       -3.6335490842       -0.3162953262
 C         -1.9455572918       -4.8019982054        0.5370969389
 C         -2.4404017414       -2.4318772576       -0.1892792635
 O         -3.3233591593       -2.3676216996        0.6349794977
 N         -2.1748419850       -1.4702363461       -1.0998029614
 O         -0.4903738710        0.8649171005       -0.9008678835
 O         -2.0045806777        1.4587353427        0.6502482547
 C         -2.6946422113       -0.1304955767       -0.9556192341
 C         -1.5815744713        0.7580648381       -0.4055952187
 C         -3.1607555486        0.4218303636       -2.3011640533
 H          1.8299460761       -1.8019254046        0.9646463417
 H          3.1862198233       -3.3828684787       -1.2863353119
 H          2.7641103798       -4.0330927017        0.3028500015
 H          3.9998940829       -2.7727865357        0.1621590128
 H          2.2722604412        3.3090312394       -2.6851546038
 H          2.3104876735       -0.9191144331       -1.7855249043
 H          3.7429130885        1.7839187718       -0.9817319304
 H          1.2749045665        1.1123651683       -2.6634420162
 H          2.9624375634        0.6414992014       -3.0426036623
 H          2.1582945803        2.8969130476        0.3704736464
 H          0.9511906485        2.5392194820       -0.6687705617
 H         -0.0481995191       -3.0683890618        1.1046897182
 H         -1.3988374610       -3.9183327730       -1.3706884045
 H         -2.8949559735       -5.1732906985        0.1627153434
 H         -2.0944740766       -4.4713068159        1.5620973184
 H         -1.2133061937       -5.6050158588        0.5148799290
 H         -1.3607408407       -1.5730455341       -1.6963945921
 H         -3.5133345149       -0.1715239232       -0.2311954313
 H         -2.3184078058        0.4802978490       -2.9871285873
 H         -3.5848572593        1.4147192412       -2.1760994618
 H         -3.9164435732       -0.2351705351       -2.7228115554
 C         -1.0855593812        2.2127119036        1.3686462961
 C         -0.0824068498        1.5981580878        2.1278102458
 C         -1.2257666326        3.5922323729        1.3624016237
 C          0.7741147451        2.4113803821        2.8712937841
 C          0.6456472898        3.7856419628        2.8531590863
 C         -0.3593057118        4.3769946712        2.1020154375
 H         -2.0138827052        4.0344790171        0.7727487021
 H          1.3245217983        4.3996939264        3.4248400728
 H         -0.4666281530        5.4506621371        2.0871202823
 H          1.5581234823        1.9409811581        3.4444199968
 C          0.1015144199        0.1406312783        2.1789713448
 O         -0.4729885561       -0.6835807662        1.5049167275
 H          0.8049082149       -0.1699204914        2.9715468595
