  56
        -94.14850659
 C         -2.4631093429        0.3136514487       -1.9883731793
 C         -1.4482198072        0.3550932818       -3.1265268888
 C         -2.1237269926        1.4235105624       -0.9864541960
 O         -1.9264128115        2.5699537891       -1.3736819416
 O         -4.6832807116       -0.9449387517       -0.8647273565
 O         -1.7879780775       -1.7027982647        1.2932907567
 N         -2.4916339630       -0.9990134736       -1.3892086240
 C         -3.6027807920       -1.4955335247       -0.8037765934
 C         -3.4345207606       -2.8368794695       -0.0636146690
 C         -2.0928882755       -2.9359489883        0.6707194704
 N         -4.5235762666       -3.0544633218        0.8721594484
 N         -2.0604798055        1.0657842209        0.2988300060
 C         -1.7110040679        2.0053273404        1.3541069763
 C         -2.1893272694        1.4805034491        2.6953791091
 C         -0.1850418223        2.1498992257        1.2973202312
 O          0.5822035259        1.5850361582        2.0547581780
 N          0.2341661106        2.9194254833        0.2714205706
 O          1.2649256376        0.5309164547       -0.7620746364
 O          3.2313707947        1.1321081689        0.1586149113
 C          1.6231948478        2.8384026230       -0.1251781091
 C          1.9875540900        1.3628028151       -0.2789890394
 C          1.8375582998        3.5631428036       -1.4481938354
 H         -3.4733371324        0.5209818316       -2.3630119257
 H         -1.6970279872       -0.3813183656       -3.8860419965
 H         -0.4523309904        0.1500485183       -2.7362544820
 H         -1.4506284690        1.3454204459       -3.5727055302
 H         -0.8463936647       -1.7355680361        1.5380048215
 H         -1.5966181838       -1.4351595504       -1.2359107350
 H         -3.4844870585       -3.6361746625       -0.8166832581
 H         -1.2941265360       -3.2189186621       -0.0259138437
 H         -2.1812403638       -3.7273998799        1.4256466808
 H         -5.3966304637       -2.8002673658        0.4164450203
 H         -4.4109585503       -2.4185731619        1.6569788132
 H         -2.1237165065        0.0891657382        0.5768159864
 H         -2.1710576086        2.9709245571        1.1131771970
 H         -1.6971609513        0.5369735424        2.9170817009
 H         -3.2646561930        1.3257524716        2.6741857752
 H         -1.9447612486        2.1918339011        3.4793312603
 H         -0.4558055063        3.1543886806       -0.4455307000
 H          2.2571393238        3.2603302699        0.6637596733
 H          1.5571479514        4.6074360583       -1.3402964166
 H          1.2189311052        3.1106455506       -2.2202422893
 H          2.8809675944        3.5064113284       -1.7473200853
 C          3.7716025620       -0.1426193491        0.0708753988
 C          3.0869461722       -1.2768244503        0.5182995317
 C          5.0310166278       -0.2612691612       -0.4973587083
 C          3.6810663258       -2.5278583042        0.3483559685
 C          4.9382553041       -2.6449538368       -0.2093617272
 C          5.6179384354       -1.5084804827       -0.6211358790
 H          5.5372532704        0.6296290997       -0.8347685062
 H          5.3905563186       -3.6178580725       -0.3238316945
 H          6.6036148242       -1.5922754063       -1.0525508240
 H          3.1351905895       -3.3971911159        0.6831211841
 C          1.7805920684       -1.1804939656        1.1860482630
 O          0.9595006505       -2.0700782175        1.1891166608
 H          1.5989198706       -0.2423858504        1.7334036522
