  56
        -94.15273040
 C         -1.6252035496        1.0695618770       -2.2651114598
 C         -0.7944811047        0.3486023614       -3.3230233750
 C         -0.7054635219        1.8294946644       -1.2874920991
 O          0.4460372959        2.1021361031       -1.5567050063
 O         -0.7863898890       -0.7521508258       -0.3030849009
 O         -1.8246539687       -3.4445985326        0.7224623659
 N         -2.4606908029        0.1421954385       -1.5244895767
 C         -1.9701799236       -0.6758222728       -0.5692526604
 C         -3.0879769644       -1.4221876419        0.1551100821
 C         -2.5507559316       -2.3689209150        1.2465911449
 N         -3.9845610125       -0.3870872134        0.6674917638
 N         -1.3437701538        2.2363907136       -0.1717764079
 C         -0.6511733829        2.6211768437        1.0452666003
 C         -1.3839877210        3.7639870015        1.7360872024
 C         -0.6552204104        1.3569195538        1.9238484469
 O         -1.7078353539        0.8483437154        2.2760438328
 N          0.5582880285        0.8839237960        2.2327118687
 O          0.8169025276       -2.5131394507        1.3649603836
 O          1.8574439689       -0.6264060979        0.6597618944
 C          0.7623036428       -0.4734446097        2.6944156985
 C          1.1148079313       -1.3556689646        1.4871234816
 C          1.9024250541       -0.5323815361        3.7088254019
 H         -2.2813718922        1.8063745284       -2.7416081387
 H         -0.1158371428        1.0537266807       -3.7932672693
 H         -1.4409143862       -0.0957255033       -4.0753254741
 H         -0.2057464563       -0.4312079610       -2.8478684788
 H         -0.8934251488       -3.1886172674        0.6658956269
 H         -3.4623323842        0.1809377970       -1.6264038635
 H         -3.6322346230       -2.0224499771       -0.5858723931
 H         -3.4106038018       -2.7947529477        1.7791223669
 H         -1.9581632223       -1.7814992048        1.9562950763
 H         -3.4777470932        0.1421668338        1.3772527952
 H         -4.7728301169       -0.8218504074        1.1376954162
 H         -2.2801593095        1.8876516706       -0.0070433862
 H          0.3668141921        2.9057470170        0.7695517639
 H         -1.4971234104        4.6045014815        1.0564123520
 H         -0.8231800500        4.0865551139        2.6089590183
 H         -2.3675718840        3.4280860428        2.0580379030
 H          1.3650731611        1.2912098984        1.7614797911
 H         -0.1709747862       -0.8334518077        3.1373186333
 H          2.0691506953       -1.5596408229        4.0219625985
 H          1.6527467412        0.0680433992        4.5796267590
 H          2.8139278834       -0.1425782305        3.2615382269
 C          2.1208566917       -0.8750028594       -0.6572575392
 C          2.5747277475        0.2429637214       -1.3842480286
 C          1.9601400947       -2.1042548085       -1.2785375639
 C          2.8563029946        0.0838970649       -2.7398586216
 C          2.6952300369       -1.1396010201       -3.3592801510
 C          2.2444687423       -2.2280429063       -2.6277460318
 H          1.6022243238       -2.9489908455       -0.7135036640
 H          2.9133311763       -1.2481779224       -4.4108227618
 H          2.1104505436       -3.1850782078       -3.1092414227
 H          3.1945952600        0.9402101678       -3.3039026830
 C          2.7330725854        1.5676788256       -0.7725306196
 O          2.6021952503        1.8554717650        0.3955567064
 H          3.0526419350        2.3343142949       -1.4990049406
