  56
        -94.14850457
 C         -2.4742841951        0.3071844954       -1.9871346943
 C         -1.4657289288        0.3583388586       -3.1304987457
 C         -2.1378900417        1.4173668253       -0.9845268252
 O         -1.9467409981        2.5652429169       -1.3706089415
 O         -4.6807810805       -0.9722522528       -0.8603045045
 O         -1.7726175732       -1.7101043944        1.2889777750
 N         -2.4901527527       -1.0068436352       -1.3905672663
 C         -3.5955378772       -1.5138883831       -0.8032085195
 C         -3.4138790647       -2.8545729531       -0.0650072840
 C         -2.0690090467       -2.9443193749        0.6644501080
 N         -4.4974408345       -3.0816314399        0.8748892356
 N         -2.0703169043        1.0582620182        0.3001756092
 C         -1.7219469218        1.9978835585        1.3556763535
 C         -2.1964436663        1.4704357336        2.6972914970
 C         -0.1965684285        2.1475687280        1.2962484393
 O          0.5740841215        1.5862174134        2.0528213391
 N          0.2180491798        2.9178546687        0.2691266038
 O          1.2610056368        0.5321935958       -0.7609515502
 O          3.2249505227        1.1470060141        0.1564824611
 C          1.6068399451        2.8431226655       -0.1293578170
 C          1.9792198531        1.3691881819       -0.2801252538
 C          1.8152674121        3.5652934018       -1.4547458838
 H         -3.4879883507        0.5077088589       -2.3560506758
 H         -1.7140768376       -0.3770568240       -3.8911319477
 H         -0.4665815932        0.1578579268       -2.7461789677
 H         -1.4764231048        1.3501089988       -3.5733460509
 H         -0.8312626928       -1.7379912700        1.5354064786
 H         -1.5910643746       -1.4356257506       -1.2403444939
 H         -3.4605823377       -3.6534399204       -0.8187276205
 H         -1.2702985971       -3.2186598331       -0.0357459290
 H         -2.1478198005       -3.7384688002        1.4176169524
 H         -5.3742468379       -2.8337244023        0.4229533258
 H         -4.3865246007       -2.4457449109        1.6599571103
 H         -2.1263737144        0.0807923215        0.5766982352
 H         -2.1855485057        2.9621846488        1.1163438479
 H         -1.7042805668        0.5260740868        2.9153784922
 H         -3.2719434590        1.3165009382        2.6791007781
 H         -1.9489213745        2.1798810927        3.4820146455
 H         -0.4739985044        3.1517020444       -0.4460713708
 H          2.2398627553        3.2705601212        0.6573803120
 H          2.8585876547        3.5136735991       -1.7551197673
 H          1.5289965833        4.6082621584       -1.3494965226
 H          1.1982413216        3.1070307848       -2.2246814071
 C          3.7736547611       -0.1242046250        0.0706423142
 C          3.0970510584       -1.2622424482        0.5206002377
 C          5.0335251378       -0.2353079755       -0.4981676408
 C          3.6995324039       -2.5095331477        0.3525385270
 C          4.9571451474       -2.6190730054       -0.2058081885
 C          5.6288159177       -1.4787330152       -0.6200914612
 H          5.5335629734        0.6583932124       -0.8374328056
 H          5.4160825402       -3.5890621024       -0.3186475353
 H          6.6149310587       -1.5565584868       -1.0516367795
 H          3.1597559662       -3.3819516949        0.6891853999
 C          1.7904674086       -1.1734827217        1.1889370255
 O          0.9753730977       -2.0685915949        1.1940251195
 H          1.6027630335       -0.2356603760        1.7347076185
