  56
        -94.14850427
 C         -2.4666816709        0.3126093626       -1.9868133743
 C         -1.4612192230        0.3671607785       -3.1327860419
 C         -2.1318784790        1.4237650272       -0.9849053297
 O         -1.9393890126        2.5711440086       -1.3718587866
 O         -4.6705476363       -0.9829334801       -0.8723367870
 O         -1.7788108903       -1.7019056575        1.2976849843
 N         -2.4767158761       -1.0013116197       -1.3899843568
 C         -3.5819074272       -1.5170843288       -0.8101102192
 C         -3.3950709471       -2.8588637146       -0.0753703564
 C         -2.0567793376       -2.9373331708        0.6672017172
 N         -4.4860249720       -3.1003591568        0.8522195062
 N         -2.0674978838        1.0662301181        0.3004105107
 C         -1.7211358202        2.0072431680        1.3554728934
 C         -2.1988926613        1.4821284741        2.6968196901
 C         -0.1954527514        2.1559122159        1.2995677860
 O          0.5726590143        1.5958521760        2.0595789059
 N          0.2222531165        2.9233520417        0.2714258999
 O          1.2533630701        0.5340526040       -0.7583143861
 O          3.2235597790        1.1405262866        0.1508308478
 C          1.6108336256        2.8433470009       -0.1266625163
 C          1.9768482681        1.3681077582       -0.2804599780
 C          1.8228712301        3.5675075816       -1.4503990520
 H         -3.4820441523        0.5092689587       -2.3533035400
 H         -1.7094009525       -0.3687292760       -3.8929842765
 H         -0.4606448000        0.1692958925       -2.7509063035
 H         -1.4757840188        1.3590468779       -3.5752411703
 H         -0.8422527935       -1.7252788822        1.5612994980
 H         -1.5756453630       -1.4248216269       -1.2366973430
 H         -3.4257369562       -3.6552025397       -0.8325998616
 H         -1.2481435073       -3.2018765631       -0.0254022051
 H         -2.1353753044       -3.7341869158        1.4174329465
 H         -5.3604621556       -2.8586114289        0.3924051461
 H         -4.3892688206       -2.4669005453        1.6411061345
 H         -2.1265150591        0.0893159386        0.5781796321
 H         -2.1836501192        2.9714254043        1.1135778968
 H         -1.9582013271        2.1954799112        3.4801308316
 H         -1.7030589606        0.5409802155        2.9203858004
 H         -3.2735323146        1.3228443592        2.6745808418
 H         -0.4685397028        3.1563205897       -0.4453240062
 H          2.2454326571        3.2664020503        0.6611232237
 H          1.5421366824        4.6117102667       -1.3426132593
 H          1.2032512390        3.1144092448       -2.2212927690
 H          2.8658424969        3.5110856175       -1.7510699714
 C          3.7646088469       -0.1340367231        0.0644941769
 C          3.0868565538       -1.2659331535        0.5280551145
 C          5.0172707659       -0.2551127220       -0.5179184716
 C          3.6807411712       -2.5174012711        0.3601284794
 C          4.9312148691       -2.6368835486       -0.2119271964
 C          5.6042615009       -1.5024763703       -0.6400390275
 H          5.5183151271        0.6339583535       -0.8676883554
 H          5.3834540122       -3.6099908419       -0.3249155510
 H          6.5847120317       -1.5881034691       -1.0828542191
 H          3.1400316878       -3.3849312744        0.7077472784
 C          1.7879880165       -1.1668402188        1.2097380923
 O          0.9709874463       -2.0598125261        1.2328611683
 H          1.6078309237       -0.2226836338        1.7470420816
