  56
        -94.14849500
 C         -2.4198577731        0.3154922718       -1.9953701779
 C         -1.3948176696        0.3475580781       -3.1246659894
 C         -2.0910258338        1.4338019244       -0.9993492944
 O         -1.8794007035        2.5750195248       -1.3942218039
 O         -4.6563528066       -0.9471846795       -0.9091785252
 O         -1.8097675215       -1.6689578459        1.3225340503
 N         -2.4533980495       -0.9917965756       -1.3847160851
 C         -3.5741239405       -1.4905351961       -0.8199715431
 C         -3.4144588940       -2.8249863949       -0.0656156985
 C         -2.0906298326       -2.9088581124        0.7019293567
 N         -4.5242950475       -3.0436116409        0.8451255419
 N         -2.0552367669        1.0889461199        0.2906429369
 C         -1.7158219479        2.0358509971        1.3426713756
 C         -2.2207840866        1.5282031425        2.6807471071
 C         -0.1878230793        2.1666127506        1.3087780540
 O          0.5626559383        1.5969307667        2.0789335874
 N          0.2525005173        2.9309766090        0.2871070800
 O          1.2515526146        0.5368690244       -0.7470758856
 O          3.2351970251        1.1054243064        0.1560645916
 C          1.6449103995        2.8341211301       -0.0926801518
 C          1.9893365155        1.3561576285       -0.2657759009
 C          1.8890610071        3.5775360058       -1.4001595646
 H         -3.4269243485        0.5180181009       -2.3810535939
 H         -1.3934842766        1.3339690161       -3.5793690127
 H         -1.6363263743       -0.3956900990       -3.8798527730
 H         -0.4026305078        0.1466270582       -2.7232621442
 H         -0.8758993772       -1.6954158808        1.5941690954
 H         -1.5592797404       -1.4215720422       -1.2096184415
 H         -3.4402206654       -3.6303065342       -0.8134458716
 H         -1.2729215902       -3.1907724986        0.0272846053
 H         -2.1917130725       -3.6953301171        1.4604226002
 H         -5.3881193006       -2.8018791881        0.3657326343
 H         -4.4367534335       -2.3990992896        1.6261077674
 H         -2.1289603132        0.1154840210        0.5767903044
 H         -2.1637705037        3.0027465444        1.0848517341
 H         -3.2962766518        1.3781119820        2.6416999015
 H         -1.9872127538        2.2472092693        3.4610538655
 H         -1.7371753063        0.5850319166        2.9218088289
 H         -0.4253167430        3.1638076303       -0.4421370420
 H          2.2742263130        3.2332445047        0.7116083547
 H          1.2729193724        3.1493182665       -2.1878941211
 H          2.9352615202        3.5079167095       -1.6864822926
 H          1.6250600005        4.6244742372       -1.2775635497
 C          3.7515469778       -0.1783577458        0.0545404949
 C          3.0577691518       -1.2989062118        0.5220767780
 C          4.9923644649       -0.3210644096       -0.5476625920
 C          3.6234710370       -2.5611409520        0.3382796870
 C          4.8622465512       -2.7024719227       -0.2539225698
 C          5.5516499470       -1.5794625901       -0.6860491679
 H          5.5059011086        0.5596659929       -0.9003852800
 H          5.2926433131       -3.6838648142       -0.3797618679
 H          6.5230220761       -1.6824553990       -1.1448643305
 H          3.0705516886       -3.4196255371        0.6891170180
 C          1.7701336815       -1.1770630918        1.2212386603
 O          0.9375290750       -2.0550270096        1.2538636836
 H          1.6126325398       -0.2297646150        1.7604293587
