  56
        -94.14849481
 C         -2.4919732726        0.3132922609       -1.9805067129
 C         -1.5024344374        0.3849460592       -3.1394026596
 C         -2.1547010851        1.4212876832       -0.9760180874
 O         -1.9730862298        2.5718199932       -1.3589904718
 O         -4.6721076609       -1.0188631814       -0.8611363817
 O         -1.7613979105       -1.7153525111        1.2864351721
 N         -2.4813971546       -1.0043362832       -1.3921940738
 C         -3.5762698388       -1.5392804338       -0.8101702379
 C         -3.3669684319       -2.8848739792       -0.0887682662
 C         -2.0249400504       -2.9500121103        0.6484776996
 N         -4.4507541076       -3.1520116197        0.8401016745
 N         -2.0753440086        1.0576630644        0.3067129710
 C         -1.7255096538        1.9956828243        1.3633540332
 C         -2.1880962814        1.4608948502        2.7062423633
 C         -0.2012935021        2.1552083684        1.2964998466
 O          0.5757928934        1.6042550927        2.0541044087
 N          0.2045460747        2.9210607970        0.2627579283
 O          1.2482424230        0.5332222361       -0.7619953713
 O          3.2155381087        1.1589261171        0.1407306950
 C          1.5908452161        2.8487858795       -0.1448175057
 C          1.9666894972        1.3748964557       -0.2899421107
 C          1.7873424044        3.5641966773       -1.4757018428
 H         -3.5140080327        0.5020777755       -2.3323362753
 H         -0.4955278251        0.1901707036       -2.7727826942
 H         -1.5295812403        1.3806740881       -3.5725736860
 H         -1.7558295978       -0.3457623860       -3.9028516146
 H         -0.8266990156       -1.7331371074        1.5572420518
 H         -1.5741150208       -1.4178626866       -1.2485395451
 H         -3.3880973944       -3.6743169141       -0.8534837729
 H         -1.2152448768       -3.1985762118       -0.0489862218
 H         -2.0898313157       -3.7531783787        1.3932078994
 H         -5.3308520322       -2.9240001630        0.3841861109
 H         -4.3637462012       -2.5215404500        1.6325045267
 H         -2.1264980125        0.0790173513        0.5798447441
 H         -2.1962325089        2.9580910949        1.1302831933
 H         -3.2619084813        1.2952549753        2.6930821251
 H         -1.9443036270        2.1715761288        3.4910116275
 H         -1.6846610860        0.5216103123        2.9204944916
 H         -0.4930527710        3.1525429294       -0.4477610611
 H          2.2281792535        3.2826919656        0.6348577785
 H          1.1667364719        3.0993555080       -2.2387911841
 H          2.8287241347        3.5148331770       -1.7830802371
 H          1.4978325615        4.6066689532       -1.3743917744
 C          3.7667287403       -0.1119038941        0.0641117249
 C          3.0998132971       -1.2457535808        0.5384865597
 C          5.0200110880       -0.2269445849       -0.5183117908
 C          3.7055773399       -2.4930684430        0.3824263019
 C          4.9569296102       -2.6062815665       -0.1889389907
 C          5.6187232167       -1.4697909042       -0.6288829844
 H          5.5124858762        0.6633892984       -0.8769403326
 H          5.4185448055       -3.5760613521       -0.2922002238
 H          6.5996178627       -1.5504065381       -1.0716614293
 H          3.1733147206       -3.3622201949        0.7389155937
 C          1.8002994544       -1.1530353819        1.2198581504
 O          0.9913334487       -2.0531112554        1.2499996498
 H          1.6116366729       -0.2061578033        1.7492180180
