  56
        -94.14848955
 C         -2.5085400272        0.3075912655       -1.9778371284
 C         -1.5192527911        0.3839435800       -3.1366736896
 C         -2.1712186994        1.4129373245       -0.9704492995
 O         -1.9984806064        2.5660698165       -1.3497041011
 O         -4.6815539620       -1.0211245108       -0.8410254342
 O         -1.7468585805       -1.7321707839        1.2730692686
 N         -2.4962027890       -1.0119685829       -1.3938801933
 C         -3.5867715127       -1.5447224817       -0.8017409972
 C         -3.3742154462       -2.8919358634       -0.0842125162
 C         -2.0230319371       -2.9641900779        0.6354153992
 N         -4.4470696838       -3.1544899592        0.8586058154
 N         -2.0801631344        1.0442706089        0.3100379586
 C         -1.7274996840        1.9802174729        1.3675332748
 C         -2.1788305218        1.4390729433        2.7116930134
 C         -0.2045646827        2.1463753680        1.2907873155
 O          0.5802089595        1.5966775379        2.0415180330
 N          0.1914834437        2.9156010037        0.2560692656
 O          1.2530558120        0.5307670454       -0.7667203872
 O          3.2110137354        1.1746792967        0.1440921560
 C          1.5760949175        2.8513839558       -0.1589791763
 C          1.9630256564        1.3793140077       -0.2939196559
 C          1.7584396324        3.5561488830       -1.4975166380
 H         -3.5307510087        0.4970813701       -2.3286893510
 H         -1.5480761895        1.3807994645       -3.5671894563
 H         -1.7716554824       -0.3450040112       -3.9021257677
 H         -0.5118960667        0.1896334055       -2.7709034633
 H         -0.8083007589       -1.7531795568        1.5307747706
 H         -1.5886599368       -1.4276300721       -1.2583237668
 H         -3.4092861389       -3.6806064813       -0.8492240809
 H         -1.2234016909       -3.2141051070       -0.0731347956
 H         -2.0813273765       -3.7690845758        1.3788385155
 H         -5.3317320247       -2.9197809756        0.4150465121
 H         -4.3453103510       -2.5265623421        1.6512744112
 H         -2.1234332894        0.0642371988        0.5796430665
 H         -2.2039148967        2.9413091740        1.1406852546
 H         -1.9300654543        2.1468646029        3.4975194255
 H         -1.6723410814        0.4996573884        2.9180996679
 H         -3.2524701338        1.2718712690        2.7061036612
 H         -0.5114518701        3.1485525254       -0.4485614446
 H          2.2146617396        3.2973354280        0.6128882471
 H          1.4607138460        4.5970511613       -1.4041996221
 H          1.1372791292        3.0788460384       -2.2524177182
 H          2.7982924940        3.5126907279       -1.8109407306
 C          3.7755240828       -0.0904534043        0.0720332841
 C          3.1147565570       -1.2328211174        0.5342935728
 C          5.0374858667       -0.1904642351       -0.4943743153
 C          3.7353559998       -2.4732165148        0.3814519948
 C          4.9950879676       -2.5714091880       -0.1740740070
 C          5.6507221632       -1.4264951019       -0.6012005474
 H          5.5251727842        0.7062965063       -0.8433983766
 H          5.4680645271       -3.5359727916       -0.2747706564
 H          6.6382686021       -1.4952013854       -1.0310133943
 H          3.2076735838       -3.3491476292        0.7280074481
 C          1.8069157883       -1.1559035311        1.2015238350
 O          1.0055005285       -2.0631826511        1.2173409101
 H          1.6052672609       -0.2146202129        1.7359319484
