  56
        -94.14847771
 C         -0.4743740844        1.6242077315       -1.8888600626
 C         -1.0829098891        0.8738336997       -3.0617012530
 C          0.9622037312        1.1367609045       -1.5999449193
 O          1.4820752275        0.2166848457       -2.2112627561
 O         -0.5843847573        3.3068112458        0.3888654251
 O         -2.0853420132        4.1818334572        2.5235438945
 N         -1.3200371322        1.4829754322       -0.7171485870
 C         -1.3500874369        2.3501166947        0.2970237127
 C         -2.4032987189        2.0453948510        1.3585270480
 C         -3.0138241135        3.3700941711        1.8739418976
 N         -3.3861272686        1.1089873709        0.8327283791
 N          1.5684110433        1.8544145417       -0.6505188454
 C          2.9312652093        1.6276576595       -0.1965649336
 C          3.3808846535        2.8031350945        0.6540539116
 C          2.9745405621        0.3153941940        0.6138594630
 O          2.9125395990        0.2739082494        1.8220812412
 N          3.1052834832       -0.7705334966       -0.1764236416
 O          1.4953468638       -3.8516736672       -0.4127742935
 O          0.6906393180       -1.8072367070        0.0924922859
 C          3.0090960007       -2.1136075738        0.3498816439
 C          1.6695721549       -2.7252214675       -0.0460894799
 C          4.1606068331       -2.9883139643       -0.1322538906
 H         -0.4038624760        2.6979477301       -2.1134569648
 H         -2.0787463116        1.2514894717       -3.2789403149
 H         -1.1416101124       -0.1876316516       -2.8331951338
 H         -0.4546983208        0.9985355089       -3.9388987804
 H         -1.3203989086        4.2724534391        1.9303838800
 H         -1.9907192693        0.7242950808       -0.6730863581
 H         -1.8725245292        1.5702983523        2.1924359430
 H         -3.7994164265        3.1461471513        2.6028586207
 H         -3.4718112196        3.8983740986        1.0188304242
 H         -4.1414650289        1.6144765929        0.3801770929
 H         -3.7820200296        0.5600264304        1.5870839646
 H          1.0354340040        2.5779688022       -0.1706817388
 H          3.5715291185        1.5112850272       -1.0806030242
 H          4.4252315865        2.6827943494        0.9281014172
 H          2.7904981383        2.8376625709        1.5663847988
 H          3.2604929842        3.7357535442        0.1089954243
 H          2.9183697738       -0.6488745238       -1.1682470393
 H          3.0277627161       -2.0171264438        1.4447094884
 H          4.1761502748       -3.0198395148       -1.2189499105
 H          4.0322356046       -4.0003871553        0.2396449652
 H          5.1050038992       -2.5890595289        0.2255031171
 C         -0.5790171748       -2.0809366982       -0.3748299299
 C         -1.6743998428       -1.8149422949        0.4580124672
 C         -0.7761161101       -2.5549219774       -1.6635798192
 C         -2.9618122053       -2.0405147021       -0.0335233963
 C         -3.1574991963       -2.5169355867       -1.3132907588
 C         -2.0628693325       -2.7733378696       -2.1263861476
 H          0.0763585111       -2.7454826713       -2.2962596697
 H         -4.1567768576       -2.6935855704       -1.6800636204
 H         -2.2080012075       -3.1447896964       -3.1294341020
 H         -3.7938215383       -1.8384662240        0.6227119357
 C         -1.4882760428       -1.3286413209        1.8307891061
 O         -2.3891613123       -1.0693148041        2.5900247020
 H         -0.4328386834       -1.2109863880        2.1315806965
