  56
        -94.15265528
 C         -1.9042810391       -0.6226865809       -2.0692946137
 C         -1.1963610343       -1.6296362903       -2.9595190017
 C         -1.0054505133        0.5871885329       -1.7562189107
 O          0.1793568592        0.6272128982       -2.0271628611
 O         -4.0121047567        0.1313452897       -0.4260152606
 O         -1.0328941207       -1.7734400824        1.5781857115
 N         -2.2608734881       -1.2378303243       -0.7979945649
 C         -3.2681672194       -0.7650702956       -0.0446946650
 C         -3.4724233910       -1.3738125807        1.3503480020
 C         -2.3251528772       -2.2542746114        1.8658740607
 N         -3.7355396491       -0.3153010435        2.3172974801
 N         -1.6697893374        1.5726848209       -1.1207721346
 C         -0.9588933107        2.5708927130       -0.3483034881
 C         -1.8966449468        3.7098894507        0.0294214643
 C         -0.4162004457        1.8821290653        0.9143642245
 O         -1.0934977105        1.0836709675        1.5461365589
 N          0.8207261936        2.2496374010        1.2749144489
 O          3.4570148886        0.0513819551        1.6530720809
 O          1.4240688452       -0.2920414318        0.7425862902
 C          1.5914136103        1.5008476713        2.2486512527
 C          2.3082335535        0.3579502048        1.5173189147
 C          2.5902954278        2.3973577291        2.9605730605
 H         -2.8345079174       -0.2697454783       -2.5288285301
 H         -0.2509237576       -1.9217776047       -2.5079258100
 H         -0.9858862817       -1.1788251878       -3.9250512201
 H         -1.8173944505       -2.5099143693       -3.1030769802
 H         -0.9930322193       -0.8218308708        1.7760247021
 H         -1.5335391164       -1.7775238529       -0.3432682843
 H         -4.3788050501       -1.9931204532        1.3000926864
 H         -2.3809461621       -3.2502028405        1.4157163835
 H         -2.4622807029       -2.3537071287        2.9507195803
 H         -4.5101803111        0.2499882256        1.9824758931
 H         -2.9257225811        0.2987787357        2.3702223859
 H         -2.6392989649        1.4024329757       -0.8645196260
 H         -0.1215857691        2.9302002956       -0.9556854722
 H         -2.7110924882        3.3277272276        0.6412364906
 H         -2.3129271504        4.1627116496       -0.8667654521
 H         -1.3595992306        4.4676598951        0.5939479099
 H          1.3907666830        2.7436349974        0.6007344559
 H          0.8783809621        1.0541086833        2.9523211200
 H          3.2740852641        2.8313779646        2.2354293698
 H          3.1701315738        1.8093811485        3.6655783525
 H          2.0740202175        3.1921658062        3.4917261360
 C          1.8837473690       -1.1338599334       -0.2471379676
 C          2.6368690699       -0.6303603731       -1.3168991941
 C          1.5109077304       -2.4676276317       -0.2034328828
 C          3.0206946232       -1.5150596526       -2.3262483060
 C          2.6725488229       -2.8493401546       -2.2729559643
 C          1.9084606505       -3.3233758606       -1.2157854444
 H          0.9038655102       -2.8038709881        0.6227861651
 H          2.9819056142       -3.5209049361       -3.0592522146
 H          1.6205829598       -4.3633491423       -1.1798429950
 H          3.5955090983       -1.1364125338       -3.1585962987
 C          2.9570854962        0.7912270519       -1.4536591861
 O          2.7765426088        1.6634399763       -0.6377010490
 H          3.4093190747        1.0341615759       -2.4332391685
