  56
        -94.14844936
 C         -2.3334765650       -0.1017384579       -2.0157238807
 C         -2.0285863483       -1.1222868085       -3.0990381437
 C         -1.1107626555        0.7671052473       -1.6814895615
 O          0.0377850496        0.4595895817       -1.9389940343
 O         -3.8754128954        1.0131382949        0.0266076440
 O         -1.7386460666       -1.0018861701        2.4491533508
 N         -2.7661051115       -0.7710696434       -0.7981807361
 C         -3.5023423197       -0.1522406465        0.1358350540
 C         -3.9267454629       -1.0110789086        1.3259122587
 C         -3.0857515090       -0.6428462618        2.5698088575
 N         -5.3290665447       -0.8056753398        1.6513205961
 N         -1.4605533659        1.9158709744       -1.0676359102
 C         -0.4435874836        2.7669100446       -0.4926943579
 C         -1.0723346309        4.0566582401        0.0225382692
 C          0.2395592653        2.0250927623        0.6619052724
 O         -0.3493145122        1.2077508292        1.3418110010
 N          1.5148377432        2.3909218077        0.8935637167
 O          4.2626934819        0.2883066122        1.5046727053
 O          2.3391001569       -0.0464293436        0.3587799281
 C          2.3442074488        1.7290293885        1.8784296522
 C          3.1312917041        0.5774711864        1.2325301398
 C          3.2798459538        2.7093647975        2.5696041394
 H         -3.1502326846        0.5626814972       -2.3249836809
 H         -2.9127082946       -1.7163031666       -3.3156813077
 H         -1.2280527238       -1.7796144870       -2.7718913347
 H         -1.7085302141       -0.6124293188       -4.0035347710
 H         -1.2588019303       -0.2832424524        2.0119029204
 H         -2.3001380331       -1.6491413588       -0.5891738839
 H         -3.7660031036       -2.0696652456        1.1009954903
 H         -3.4964878128       -1.2017398688        3.4155107795
 H         -3.2030882419        0.4291735222        2.7691449315
 H         -5.9132952395       -1.1081516532        0.8781669281
 H         -5.4905408302        0.1905326488        1.7748611976
 H         -2.4021761284        1.9669588407       -0.6767612407
 H          0.2975448978        2.9737866327       -1.2745371906
 H         -1.5706320487        4.5768414281       -0.7914753131
 H         -0.3136057249        4.7086892217        0.4479919490
 H         -1.8066293171        3.8241668736        0.7905572191
 H          1.9861633961        2.9855093058        0.2294674109
 H          1.6552820607        1.2706006547        2.6009632365
 H          3.9207198659        3.2000984688        1.8402337324
 H          3.9125236246        2.1721988470        3.2696395042
 H          2.7089757506        3.4617527611        3.1062982801
 C          2.7378948691       -1.0994239267       -0.4401559998
 C          1.7404259235       -2.0139283777       -0.8114629801
 C          4.0271544085       -1.2349657801       -0.9297174687
 C          2.0668902555       -3.0517536588       -1.6830792303
 C          3.3529755456       -3.1914809894       -2.1642645841
 C          4.3286287076       -2.2838221545       -1.7838065826
 H          4.7924237189       -0.5307610394       -0.6461208388
 H          3.5976403626       -4.0008347687       -2.8348930330
 H          5.3361986166       -2.3836510036       -2.1583100898
 H          1.2850162732       -3.7422753822       -1.9619929055
 C          0.3740497794       -1.8881917014       -0.3002850004
 O         -0.5537908572       -2.5747916675       -0.6644924038
 H          0.2380619443       -1.1151163037        0.4695549733
