  56
        -94.14844629
 C         -2.4296506623        0.3150070333       -1.9911745757
 C         -1.4406097684        0.3892114953       -3.1502775650
 C         -2.1134654650        1.4380528242       -0.9968186728
 O         -1.9148431926        2.5815513470       -1.3919330701
 O         -4.6066203736       -1.0793110736       -0.9400993385
 O         -1.7794316819       -1.6655905340        1.3359498132
 N         -2.3988574499       -0.9950314595       -1.3869734009
 C         -3.4969688299       -1.5629443371       -0.8443432182
 C         -3.2711837206       -2.8978495998       -0.1082997767
 C         -1.9626029883       -2.9098232634        0.6885390395
 N         -4.3847589073       -3.2025992396        0.7724027143
 N         -2.0769719381        1.0952145953        0.2938884684
 C         -1.7496505758        2.0484128284        1.3442867021
 C         -2.2572228846        1.5431505697        2.6822567723
 C         -0.2223847145        2.1917488989        1.3181363193
 O          0.5276906477        1.6389876873        2.1004764070
 N          0.2172626192        2.9476619316        0.2894867311
 O          1.2089899763        0.5512913802       -0.7332771181
 O          3.2096591098        1.1276731516        0.1258396809
 C          1.6095960184        2.8513378325       -0.0895801308
 C          1.9539508521        1.3739670746       -0.2698057102
 C          1.8564376612        3.6017301323       -1.3926478348
 H         -3.4546480678        0.4810045645       -2.3462054031
 H         -1.4779976977        1.3815398843       -3.5902740042
 H         -1.6854436324       -0.3499005496       -3.9083677624
 H         -0.4322819593        0.2080333903       -2.7810381368
 H         -0.8688166375       -1.6593985681        1.6766242143
 H         -1.4846701549       -1.3804436270       -1.2122078357
 H         -3.2280881070       -3.6897918496       -0.8695835437
 H         -1.1122221127       -3.1240154165        0.0289466449
 H         -2.0277119796       -3.7157181371        1.4301537030
 H         -5.2511892858       -3.0031772807        0.2784416927
 H         -4.3534896296       -2.5704077106        1.5675978436
 H         -2.1384585699        0.1211183993        0.5801847703
 H         -2.2038551605        3.0106534655        1.0799528357
 H         -1.7673463422        0.6051486374        2.9304893310
 H         -3.3313203694        1.3845170893        2.6392664285
 H         -2.0325814875        2.2677481233        3.4600048918
 H         -0.4603428730        3.1720565601       -0.4423578835
 H          2.2384353568        3.2460161155        0.7172595186
 H          1.2407904165        3.1791997003       -2.1838597499
 H          2.9029923592        3.5322638549       -1.6776600273
 H          1.5937282362        4.6483166018       -1.2644402963
 C          3.7210237684       -0.1587759737        0.0289180120
 C          3.0495241176       -1.2658269656        0.5575011123
 C          4.9322320372       -0.3186836345       -0.6266044211
 C          3.6071385030       -2.5330509795        0.3823137455
 C          4.8166678283       -2.6914602650       -0.2634024639
 C          5.4843646974       -1.5810942426       -0.7579198078
 H          5.4287832427        0.5516329426       -1.0264166151
 H          5.2411039576       -3.6762642432       -0.3827480554
 H          6.4326531376       -1.6974378155       -1.2598301790
 H          3.0713398953       -3.3809921990        0.7820795463
 C          1.7935179179       -1.1257654965        1.3088178023
 O          0.9743224445       -2.0100032936        1.4167500170
 H          1.6455242276       -0.1560531327        1.8093378080
