  56
        -94.14840502
 C          0.7183035391        2.7932323701        1.1968991741
 C          1.6473283760        3.9777183695        1.4378413207
 C          1.2662162407        1.8613572457        0.0998294757
 O          0.6952412102        1.7182111864       -0.9695349062
 O         -1.6607648101        1.3246133222        1.3224975885
 O         -1.3598070780        3.4142250332       -1.9014786868
 N         -0.5928632530        3.2651802292        0.8153576552
 C         -1.6484675923        2.4153993476        0.7845568638
 C         -2.8500095505        2.9725970406        0.0196104915
 C         -2.5633233962        2.8235551222       -1.4973206576
 N         -4.0847421177        2.2780759286        0.3307300360
 N          2.4263804516        1.2753666700        0.4188498469
 C          3.0057410658        0.1777978219       -0.3312613492
 C          4.4631608786        0.4673947390       -0.6819126015
 C          2.9091657419       -1.0432007941        0.5946946536
 O          3.0984249778       -0.9297529847        1.7904316658
 N          2.6192248140       -2.2070865353       -0.0187957454
 O         -0.1924193622       -4.0530009726        1.2053720369
 O          0.1688127700       -2.0321429266        0.2609774340
 C          2.0751270789       -3.3072618144        0.7471125806
 C          0.5441660029       -3.2015756060        0.7938371644
 C          2.4813408423       -4.6561869024        0.1645901751
 H          0.5936011962        2.1966962708        2.1086251199
 H          2.6217749223        3.6433614731        1.7815491363
 H          1.2181858612        4.6344603335        2.1906727906
 H          1.7789818342        4.5412066279        0.5161364805
 H         -0.6218698408        2.8074998261       -1.6934218454
 H         -0.6119698636        4.0285614286        0.1507315993
 H         -2.9673572547        4.0364430994        0.2508168284
 H         -3.3671533126        3.3235760442       -2.0434607204
 H         -2.5865416193        1.7557557719       -1.7401958048
 H         -4.3744258223        2.5056661421        1.2767624805
 H         -3.8966292522        1.2779933448        0.3202014142
 H          2.7441065869        1.3045217460        1.3800408226
 H          2.4059345685        0.0347917273       -1.2331987391
 H          4.8756746035       -0.3582970319       -1.2548621100
 H          5.0462743824        0.5889254999        0.2283916960
 H          4.5322619251        1.3772917032       -1.2725675212
 H          2.2921798077       -2.1499005609       -0.9771128648
 H          2.4479244277       -3.2045348136        1.7739723920
 H          1.9899802253       -5.4514680367        0.7176504589
 H          3.5580493843       -4.7829711529        0.2302749624
 H          2.1813454413       -4.7184827516       -0.8791977812
 C         -1.1425570622       -1.7161646617       -0.0075149046
 C         -1.4039607541       -1.1615160774       -1.2727724434
 C         -2.1592908982       -1.8951355260        0.9141234565
 C         -2.7201089101       -0.8189189469       -1.5860083770
 C         -3.7386260055       -1.0130434559       -0.6740051189
 C         -3.4541004024       -1.5413517907        0.5767647458
 H         -1.9338826525       -2.3064155903        1.8844490925
 H         -4.7521961241       -0.7469130011       -0.9337725741
 H         -4.2457174713       -1.6772856319        1.2977575655
 H         -2.9368059617       -0.4150889900       -2.5648540376
 C         -0.3504437384       -0.9541153200       -2.2679812639
 O          0.7870626680       -1.3595878122       -2.2166582406
 H         -0.6957263526       -0.3786941119       -3.1469813544
