  56
        -94.14839055
 C         -1.8035026568       -0.0202134267       -1.9246157155
 C         -1.6852130509       -0.9347082879       -3.1314420442
 C         -0.6301312509        0.9814640303       -1.8587966743
 O          0.3904627958        0.8314496363       -2.5086904850
 O         -2.9072883159        0.7398332067        0.5283805512
 O         -3.7044002920        0.0231621015        3.0880939039
 N         -1.8191794358       -0.8008690810       -0.6999083738
 C         -2.3896384924       -0.3656748401        0.4313908935
 C         -2.3455232683       -1.3596123136        1.5856638783
 C         -3.6258892151       -1.2071530109        2.4393905125
 N         -2.1292159419       -2.7088029161        1.0769829652
 N         -0.8670134197        1.9980060803       -1.0220048640
 C          0.1259889001        2.9793518810       -0.6151048708
 C         -0.4514089094        4.3849648969       -0.7062753012
 C          0.4445133168        2.6094402156        0.8456474824
 O         -0.3561834620        2.8006494620        1.7353927336
 N          1.6354468618        2.0010018820        1.0237576095
 O          0.7680769573       -1.0137378653        2.3939424019
 O          2.0125978531       -0.5024694047        0.5724030587
 C          1.8710738556        1.1566786456        2.1803998009
 C          1.4728888832       -0.2659823915        1.7738340013
 C          3.3355470916        1.2053802937        2.6014369324
 H         -2.7399671783        0.5507502265       -1.9555483178
 H         -1.7470532494       -0.3462474658       -4.0422871113
 H         -2.4840551554       -1.6719663490       -3.1285774622
 H         -0.7230911454       -1.4410642113       -3.1169806995
 H         -3.5645252472        0.7126260645        2.4177752236
 H         -1.3774909418       -1.7106334491       -0.6792878716
 H         -1.4834917907       -1.0859861629        2.2073918612
 H         -3.6344444183       -1.9740743458        3.2215571086
 H         -4.5028078994       -1.3679584038        1.7865752353
 H         -2.9925051324       -3.0637857415        0.6743276000
 H         -1.8781317475       -3.3237265999        1.8431389624
 H         -1.7150293035        1.9778223890       -0.4577496831
 H          0.9994997435        2.8547149093       -1.2608188125
 H         -0.8270307133        4.5768229334       -1.7079760705
 H          0.3167874389        5.1154614067       -0.4679153177
 H         -1.2631784596        4.4853934163        0.0105747314
 H          2.2120782429        1.7827541642        0.2142000405
 H          1.2081169096        1.4887195999        2.9855053049
 H          3.5988403718        2.2195802766        2.8884543839
 H          3.9672459706        0.8985586715        1.7710056114
 H          3.5058879319        0.5429023374        3.4460107841
 C          1.6872469318       -1.4996568244       -0.3081164328
 C          2.0433431319       -1.2408373400       -1.6460509493
 C          1.0502755840       -2.6816334934        0.0395237638
 C          1.7609281500       -2.2095064871       -2.6060131481
 C          1.1351277468       -3.3927744028       -2.2594029163
 C          0.7743043784       -3.6209725001       -0.9408572358
 H          0.7659559824       -2.8591908167        1.0629076339
 H          0.9219538680       -4.1334465221       -3.0150945044
 H          0.2744638515       -4.5368632776       -0.6656491322
 H          2.0310435627       -2.0162001462       -3.6335424660
 C          2.6632868426        0.0288546222       -2.0626607906
 O          3.0251023510        0.9272576937       -1.3417131545
 H          2.8245912198        0.0837945491       -3.1522544276
