  56
        -94.14838787
 C          0.7852793199       -3.0795048996       -0.1636299910
 C          1.4548844819       -4.3852826044       -0.5713728871
 C         -0.7487454355       -3.1874752892       -0.3086350369
 O         -1.2536983929       -3.7146044256       -1.2767776238
 O          1.9858714516       -0.5518799298        0.4886936958
 O          2.4770582458        2.4872394608       -2.2222391790
 N          1.1753167810       -2.0006667132       -1.0509203288
 C          1.6842332221       -0.8285900941       -0.6653836019
 C          1.8134361921        0.1677986034       -1.8206186965
 C          2.7385704711        1.3436789401       -1.4539706806
 N          2.1571737674       -0.5391590542       -3.0451647181
 N         -1.4402747762       -2.6065129317        0.6871803371
 C         -2.8624473505       -2.3505116109        0.5924816274
 C         -3.4729141786       -2.2559997473        1.9863781890
 C         -3.1747249185       -1.0580778490       -0.1859331252
 O         -4.2238980956       -0.8933713095       -0.7670673550
 N         -2.1753825767       -0.1515333739       -0.1563524602
 O         -0.3726380101        2.5855940868       -1.2879070046
 O         -0.7388851331        1.8248291662        0.7975565773
 C         -2.2489796955        1.1172578304       -0.8567761985
 C         -1.0222227694        1.9438457745       -0.5028326383
 C         -2.3465144080        0.9138455562       -2.3680300782
 H          1.0721635386       -2.7821324434        0.8488376256
 H          1.0737772557       -4.6961024097       -1.5412927838
 H          1.2249345202       -5.1604783993        0.1544965597
 H          2.5330457438       -4.2590361043       -0.6277852707
 H          1.5655971275        2.7690151718       -2.0533138967
 H          0.9997080334       -2.1264141453       -2.0404503750
 H          0.8064432238        0.5814661274       -1.9737212876
 H          3.7800818820        1.0735936183       -1.6524137169
 H          2.6372828292        1.5523214006       -0.3803560567
 H          3.1060332515       -0.8971186297       -2.9833083330
 H          2.1337077220        0.1115757563       -3.8238095324
 H         -0.9456881133       -2.1140642633        1.4215150669
 H         -3.3138698151       -3.1723301136        0.0264162451
 H         -3.3432779994       -3.1942081824        2.5201918329
 H         -4.5344167526       -2.0389645317        1.9064299294
 H         -2.9906756918       -1.4592784511        2.5496475725
 H         -1.4354680830       -0.2616160668        0.5265389259
 H         -3.1373116844        1.6734289923       -0.5150571299
 H         -2.3188905110        1.8745293383       -2.8741233427
 H         -3.2784244254        0.4061663414       -2.5966522359
 H         -1.5192173215        0.3021573037       -2.7206218903
 C          0.4370288619        2.3266075151        1.3276913056
 C          1.1892549051        1.4691377376        2.1468233079
 C          0.8630257524        3.6201940050        1.0736095308
 C          2.3791537444        1.9508856982        2.6913223205
 C          2.8074121196        3.2386086618        2.4352875703
 C          2.0491110082        4.0717827788        1.6279848933
 H          0.2740643080        4.2650171826        0.4409534124
 H          3.7341419700        3.5940717047        2.8584278131
 H          2.3812682748        5.0771796122        1.4207253404
 H          2.9693398359        1.2931930611        3.3111324381
 C          0.7879029839        0.0846215990        2.4141334299
 O         -0.2785326728       -0.4224169175        2.1375388087
 H          1.5392231542       -0.4780006626        2.9912710989
