  56
        -94.14836038
 C         -2.1100835213       -1.6740929337       -1.6953233890
 C         -2.1008662046       -1.4071159348       -3.1924922243
 C         -2.7809463900       -0.5167040796       -0.9404467275
 O         -3.2675955821        0.4480407714       -1.5111612516
 O         -1.3115841091       -3.2164861151        0.5004449027
 O          0.6679790606       -4.8839395025        1.3955726742
 N         -0.7548846457       -1.8760669699       -1.2222985896
 C         -0.4546058542       -2.6503452560       -0.1765932901
 C          1.0312428199       -2.8263137505        0.1009568999
 C          1.3151530592       -4.3379762960        0.2887895095
 N          1.8267998999       -2.2091686650       -0.9487104794
 N         -2.7851415357       -0.6812036958        0.3874928723
 C         -3.2187486058        0.3468409819        1.3237699021
 C         -3.3767223074       -0.2513835295        2.7096064667
 C         -2.1363713340        1.4404708013        1.2990407754
 O         -1.2553148997        1.5375716803        2.1279833225
 N         -2.2466215595        2.2672233232        0.2342296958
 O          0.0423352952        1.0732725847       -0.7922716328
 O          1.2293947426        2.8342057183       -0.0444185638
 C         -1.1129949960        3.0936775259       -0.1147712141
 C          0.0968342987        2.1906130661       -0.3550828421
 C         -1.4126900452        3.8977081818       -1.3744686142
 H         -2.6672094110       -2.5916380045       -1.4629891035
 H         -1.6626755722       -2.2461058527       -3.7262956450
 H         -1.5250076937       -0.5080741642       -3.3979949332
 H         -3.1166745776       -1.2487046013       -3.5425062102
 H         -0.2524473901       -4.5666512067        1.3715748109
 H         -0.0157109520       -1.2895219025       -1.5885026637
 H          1.2465255956       -2.3195400124        1.0489300596
 H          2.3890220684       -4.4895662880        0.4433570975
 H          1.0217950786       -4.8645790265       -0.6385011334
 H          1.8571184473       -2.8161355185       -1.7629901837
 H          2.7782419441       -2.0722977400       -0.6295208228
 H         -2.3655579486       -1.5169223591        0.7802784870
 H         -4.1620026089        0.7699204241        0.9570348970
 H         -3.7737366205        0.4956073758        3.3913691152
 H         -2.4055596605       -0.5705461911        3.0807442670
 H         -4.0511311575       -1.1032240212        2.6812426053
 H         -2.8280673615        1.9412188244       -0.5394106646
 H         -0.8773399011        3.7553453288        0.7264341701
 H         -1.6276003186        3.2226170177       -2.2002035891
 H         -0.5624820533        4.5226803188       -1.6344495578
 H         -2.2787714152        4.5317347471       -1.2046872485
 C          2.4448132399        2.1713713198       -0.1713746602
 C          2.7474458070        1.0406422580        0.5918749437
 C          3.3679572895        2.6845845887       -1.0695799141
 C          3.9939780512        0.4370987041        0.4174292805
 C          4.9151796957        0.9466784151       -0.4741608490
 C          4.6028000635        2.0770336787       -1.2144466817
 H          3.1077710233        3.5593789981       -1.6453828568
 H          5.8769094367        0.4713275735       -0.5925079664
 H          5.3191666672        2.4853108789       -1.9109568522
 H          4.2166648343       -0.4324210092        1.0183812840
 C          1.8202698854        0.4811715108        1.5937638882
 O          1.9714068958       -0.6053030458        2.0951587791
 H          0.9749087329        1.1264389866        1.8802372398
