  56
        -94.14835627
 C         -2.2248675031       -1.4983129126       -1.7137759650
 C         -2.1596368262       -1.2137734179       -3.2062112351
 C         -2.8129132903       -0.2983732627       -0.9562107157
 O         -3.2113564938        0.7083892301       -1.5224498435
 O         -1.6061663883       -3.1323575903        0.4736647965
 O          0.2181859525       -4.9457421480        1.4106218647
 N         -0.9019193450       -1.8161405193       -1.2136014915
 C         -0.6903545542       -2.6242002682       -0.1719064327
 C          0.7697778448       -2.9112949391        0.1463284022
 C          0.9385735839       -4.4404594525        0.3298379843
 N          1.6385053641       -2.3459020151       -0.8738371532
 N         -2.8485684429       -0.4749917444        0.3699402379
 C         -3.1954069103        0.5793181122        1.3129485248
 C         -3.4094563364       -0.0134008420        2.6935866490
 C         -2.0211597885        1.5742048777        1.2993214024
 O         -1.1320309106        1.5813345518        2.1252932265
 N         -2.0632628365        2.4234076115        0.2474685978
 O          0.1341303670        1.0709999108       -0.7929576458
 O          1.4473780683        2.7346998810       -0.0320798794
 C         -0.8679932149        3.1637912870       -0.0877144095
 C          0.2705539550        2.1763670032       -0.3437623159
 C         -1.1026508632        4.0105795420       -1.3332243576
 H         -2.8606846570       -2.3694810204       -1.5064826346
 H         -1.7830306998       -2.0801680776       -3.7431930228
 H         -1.5043773708       -0.3649324379       -3.3857783501
 H         -3.1501576448       -0.9640709256       -3.5749800385
 H         -0.6765863041       -4.5647887876        1.3585747825
 H         -0.1091952965       -1.2861988070       -1.5537224255
 H          0.9940997314       -2.4271304551        1.1040365108
 H          1.9931633520       -4.6694517003        0.5176898672
 H          0.6385956782       -4.9386370055       -0.6108725645
 H          1.6602239805       -2.9537371466       -1.6876294871
 H          2.5840921284       -2.2676308763       -0.5197901059
 H         -2.5092964679       -1.3481415116        0.7583209889
 H         -4.0970367601        1.0858378605        0.9473795655
 H         -4.1534922036       -0.8047839840        2.6562667980
 H         -3.7447688955        0.7595058776        3.3796002798
 H         -2.4704318788       -0.4163967995        3.0658793269
 H         -2.6673482398        2.1564846555       -0.5313631625
 H         -0.5829874388        3.7908828840        0.7647272063
 H         -0.2063138987        4.5725774333       -1.5817105922
 H         -1.9174716778        4.7065078924       -1.1524595818
 H         -1.3676210689        3.3688232751       -2.1709105255
 C          2.6152630209        1.9950672732       -0.1766844613
 C          2.8502609698        0.8371684909        0.5695307098
 C          3.5643473406        2.4616539584       -1.0735175428
 C          4.0566996765        0.1605969012        0.3804665627
 C          5.0035172103        0.6236005179       -0.5095632194
 C          4.7580899928        1.7805033868       -1.2339263927
 H          3.3564055529        3.3589366164       -1.6358104317
 H          5.9333084514        0.0911385844       -0.6391998187
 H          5.4947193160        2.1525149510       -1.9296091128
 H          4.2287926716       -0.7283531471        0.9694658913
 C          1.8949651417        0.3215996568        1.5684355501
 O          1.9884045555       -0.7743845414        2.0631967718
 H          1.0849375001        1.0089928413        1.8593587588
