  56
        -94.15646336
 C         -2.2211186267        0.6416464913       -1.8136803818
 C         -1.3062814226        0.5906110050       -3.0354434504
 C         -1.7820365721        1.7932976077       -0.9041715789
 O         -1.3937988388        2.8569953132       -1.3731485626
 O         -4.4529193594       -0.9779487354       -1.2471538615
 O         -2.1699492216       -1.0141915888        1.7541199933
 N         -2.2234046379       -0.6213944943       -1.1155952869
 C         -3.3534363699       -1.3064707909       -0.8463867143
 C         -3.1563970986       -2.5156711084        0.0750452220
 C         -3.1672532960       -1.9746113241        1.5206065151
 N         -4.2097933574       -3.5034678851       -0.0573635190
 N         -1.8612338647        1.5632930001        0.4118273662
 C         -1.3343950671        2.4976309112        1.3970714610
 C         -1.8809360696        2.1671795686        2.7731458347
 C          0.1862718795        2.3258775262        1.3149268820
 O          0.8282188734        1.5780925617        2.0298866419
 N          0.7490601307        3.0202254261        0.3007462632
 O          1.2128550894        0.4565487623       -0.6983809684
 O          3.2688988959        0.6106126809        0.2052587095
 C          2.0817175612        2.6329865774       -0.1136618093
 C          2.1108608742        1.1120100017       -0.2304287134
 C          2.4195048591        3.2608798627       -1.4602150717
 H         -3.2576776320        0.8286676834       -2.1228909799
 H         -1.2909551561        1.5649292706       -3.5151158857
 H         -1.6598678306       -0.1549678380       -3.7423069641
 H         -0.2962494924        0.3373551440       -2.7190870818
 H         -1.3061487363       -1.4123388087        1.5324027165
 H         -1.3303056544       -0.9627740646       -0.7899988768
 H         -2.1896491356       -2.9923538706       -0.1196492285
 H         -3.0678898929       -2.8231527990        2.2084624614
 H         -4.1235556740       -1.4809633302        1.7137574147
 H         -5.1051104182       -3.0211515262       -0.0285871688
 H         -4.1511967609       -3.9489672816       -0.9676520942
 H         -2.1096842831        0.6421423508        0.7712966295
 H         -1.6030403396        3.5143519352        1.0881645072
 H         -1.5980348280        1.1533101088        3.0440931994
 H         -2.9646192842        2.2450256574        2.7741531653
 H         -1.4717520672        2.8543702184        3.5085321809
 H          0.1146669552        3.3608034961       -0.4247320725
 H          2.8069275631        2.9261273280        0.6545015015
 H          3.4169454844        2.9673500629       -1.7771833973
 H          2.3798497047        4.3435382740       -1.3762394216
 H          1.6968745904        2.9386827737       -2.2069927225
 C          3.5218628495       -0.7482411620        0.0832744983
 C          2.5550608447       -1.7193024550        0.3578476312
 C          4.7813353779       -1.1178794302       -0.3641873376
 C          2.8683146012       -3.0595894633        0.1362346220
 C          4.1262799273       -3.4283585745       -0.2981567090
 C          5.0865503490       -2.4568872383       -0.5352851799
 H          5.5079179653       -0.3479350268       -0.5709141458
 H          4.3597522377       -4.4702765472       -0.4529985316
 H          6.0731657631       -2.7392923247       -0.8689626499
 H          2.1073269145       -3.7998241773        0.3322920148
 C          1.2359179958       -1.3595110059        0.9014776438
 O          0.2172379853       -1.9746701122        0.6685160060
 H          1.2373358332       -0.5188012165        1.6139594951
