  56
        -94.14834765
 C         -2.3148990082       -1.4044375337       -1.7058889810
 C         -2.2510373777       -1.1395014459       -3.2019476334
 C         -2.8283816569       -0.1665460217       -0.9548957781
 O         -3.1731746678        0.8563102905       -1.5276456232
 O         -1.7626107384       -3.0370800620        0.5007719902
 O         -0.0360812725       -4.9407592899        1.4458330011
 N         -1.0062159892       -1.7908574671       -1.2165269975
 C         -0.8277012219       -2.5958573951       -0.1663963314
 C          0.6169699116       -2.9678672361        0.1334764939
 C          0.6937682573       -4.5010251438        0.3429718361
 N          1.5011050097       -2.4758364391       -0.9113479943
 N         -2.8656352549       -0.3305129275        0.3725945711
 C         -3.1551482644        0.7466692517        1.3089336548
 C         -3.3947616193        0.1749062553        2.6942398820
 C         -1.9333725196        1.6823282938        1.2863238798
 O         -1.0449655340        1.6538702915        2.1127139611
 N         -1.9343715482        2.5233236146        0.2272983051
 O          0.2041055786        1.0639055617       -0.7963744831
 O          1.5863847743        2.6701674570       -0.0325674305
 C         -0.7056840933        3.2050415836       -0.1114790132
 C          0.3878977572        2.1642471549       -0.3518625601
 C         -0.8974447831        4.0472257590       -1.3673665177
 H         -2.9959647857       -2.2366773399       -1.4825949642
 H         -1.9273375954       -2.0304939005       -3.7331841405
 H         -1.5536778422       -0.3287692581       -3.3982518876
 H         -3.2309234847       -0.8412301026       -3.5629726288
 H         -0.9065347054       -4.5063593580        1.4017047226
 H         -0.1872063677       -1.3194376934       -1.5794747070
 H          0.8869489400       -2.4814203617        1.0781692786
 H          1.7353793613       -4.7923156971        0.5163731521
 H          0.3455517674       -4.9963715581       -0.5825124198
 H          1.4733696750       -3.0999749513       -1.7125564766
 H          2.4554551034       -2.4469053143       -0.5737117384
 H         -2.5716574850       -1.2180984848        0.7659755128
 H         -4.0312569817        1.2956141580        0.9423867726
 H         -2.4767983025       -0.2744988008        3.0658758688
 H         -4.1794440272       -0.5765342418        2.6647364382
 H         -3.6863589244        0.9687924610        3.3762614579
 H         -2.5506483961        2.2796400142       -0.5496822851
 H         -0.3954263197        3.8282344391        0.7350086169
 H          0.0240101949        4.5659555443       -1.6180972612
 H         -1.6812016461        4.7807128375       -1.1980772558
 H         -1.1872719893        3.4084012698       -2.1990279522
 C          2.7216094973        1.8796824311       -0.1648174192
 C          2.8913996007        0.7040912987        0.5713852829
 C          3.7060214290        2.3125677935       -1.0403180976
 C          4.0671947217       -0.0266599158        0.3911512316
 C          5.0488161208        0.4025647348       -0.4778888227
 C          4.8697264198        1.5790801578       -1.1900154088
 H          3.5488754087        3.2252422046       -1.5942390250
 H          5.9546210355       -0.1713358481       -0.6002514434
 H          5.6346393314        1.9255905790       -1.8681265921
 H          4.1876422563       -0.9304011344        0.9703069835
 C          1.9008936543        0.2255508395        1.5541509713
 O          1.9320654319       -0.8805731596        2.0341964346
 H          1.1266882328        0.9512705129        1.8494219410
