  56
        -94.14833300
 C          2.7284266657       -0.9356728623       -0.2635672647
 C          3.9809238897       -1.7827878105       -0.4844194351
 C          1.4672480607       -1.6813987498       -0.7181177202
 O          0.7795397561       -1.2550823051       -1.6386709961
 O          2.2422454162        1.6809787795        0.6653369108
 O          0.0503361725        1.5170152236       -2.1165836901
 N          2.8137284526        0.2921002839       -1.0217445114
 C          2.4049174542        1.4786303719       -0.5228439930
 C          2.2059897383        2.5795801124       -1.5746039419
 C          1.1934265730        2.1244668918       -2.6509812280
 N          1.7459325240        3.8199660622       -0.9813622884
 N          1.2410083317       -2.8478994812       -0.1104266813
 C          0.1790570497       -3.7572974220       -0.5044965740
 C          0.5762621477       -5.1848090123       -0.1628194683
 C         -1.1465616426       -3.3780975102        0.1921349385
 O         -1.6523087529       -4.0613001634        1.0538669430
 N         -1.6768045742       -2.2438291038       -0.2979842585
 O         -2.7276046662       -0.0322407347        2.0816105701
 O         -1.9089169610        0.5017730080        0.0549411420
 C         -2.8589237233       -1.6411799088        0.2740711126
 C         -2.4917714996       -0.3200298585        0.9422798819
 C         -3.9193216322       -1.3976549147       -0.8003266679
 H          2.6252766664       -0.6559472772        0.7891820141
 H          3.9588081411       -2.6787220664        0.1288250019
 H          4.8623873949       -1.2031730729       -0.2218813973
 H          4.0565915219       -2.0777045422       -1.5293371953
 H          0.2446400995        0.5913024491       -1.8882236777
 H          2.8185747368        0.1709987343       -2.0240800836
 H          3.1756863044        2.7721685283       -2.0554152717
 H          1.6852015261        1.4691965176       -3.3829374401
 H          0.8505217954        3.0222564851       -3.1728838663
 H          2.2306859788        3.9697163337       -0.1005454241
 H          0.7590439204        3.7266406344       -0.7587115630
 H          1.6992961971       -3.0468551753        0.7648111336
 H          0.0447640961       -3.6345295110       -1.5855891062
 H          0.6237999413       -5.3045299288        0.9168176634
 H          1.5398157384       -5.4313082169       -0.6022671599
 H         -0.1743824822       -5.8721566084       -0.5412536099
 H         -1.1365638398       -1.6793374822       -0.9434633913
 H         -3.2294444723       -2.3238016069        1.0460834098
 H         -4.8014266997       -0.9426175021       -0.3575045169
 H         -4.2019883418       -2.3429871084       -1.2561346408
 H         -3.5239661570       -0.7361155580       -1.5676359199
 C         -1.4532080537        1.7228769691        0.5210260063
 C         -0.4534582723        1.7913174789        1.4986465008
 C         -2.0303696467        2.8760729890        0.0152963471
 C         -0.0794025136        3.0466269631        1.9796725414
 C         -0.6550701567        4.1966872927        1.4781611014
 C         -1.6201256953        4.1115441654        0.4841839618
 H         -2.7893952008        2.7893517244       -0.7456290636
 H         -0.3495551023        5.1621847315        1.8515548332
 H         -2.0619709064        5.0099203953        0.0805869801
 H          0.6924222277        3.1023585150        2.7317931986
 C          0.2592772034        0.6027595798        1.9764536229
 O          0.2325148801       -0.4986600178        1.4772623128
 H          0.8730768701        0.7981412158        2.8737519761
