  56
        -94.14832463
 C         -2.5505195829       -0.1885027056       -1.5187120618
 C         -1.8188896240       -0.1879449180       -2.8574987085
 C         -2.3682144282        1.1672540305       -0.8369991988
 O         -2.3613303748        2.2132246838       -1.4703850338
 O         -4.1732346811       -2.0984031611       -0.2923716786
 O         -0.0342696225       -3.0898311780       -0.4024805123
 N         -2.1033352568       -1.2838020269       -0.6883803970
 C         -2.9642014427       -2.2133338335       -0.2156390353
 C         -2.3086879288       -3.3717575808        0.5504021993
 C         -1.0946328507       -3.9837288368       -0.1690315717
 N         -1.9330457276       -2.9812464747        1.9041522746
 N         -2.2581965864        1.1246849575        0.4991762495
 C         -2.0140506956        2.3027233166        1.3191354618
 C         -2.3691843758        2.0152160958        2.7668110506
 C         -0.5234788628        2.6258167956        1.1455325752
 O          0.3311583974        2.3164606197        1.9531232203
 N         -0.2409570729        3.2186664644       -0.0363809511
 O          0.7527607634        0.7479620045       -0.6906717456
 O          2.8207359653        1.5043433115       -0.2268568872
 C          1.1191948506        3.1292251812       -0.5241502348
 C          1.5184355832        1.6548859619       -0.4914072697
 C          1.2104401953        3.6638064123       -1.9476370454
 H         -3.6309577116       -0.3264889621       -1.6711140844
 H         -0.7470760946       -0.1183384432       -2.6811309415
 H         -2.1363990673        0.6701832661       -3.4429327500
 H         -2.0328905755       -1.1002264047       -3.4077640178
 H          0.2812418901       -2.7442066066        0.4513031173
 H         -1.1165309591       -1.5247061051       -0.7398979804
 H         -3.0694358095       -4.1561341940        0.6423406548
 H         -1.4024494069       -4.3476455737       -1.1528670806
 H         -0.7484885147       -4.8354619632        0.4305116231
 H         -2.7435445049       -2.6361065968        2.4050516610
 H         -1.2272556050       -2.2514563553        1.8978293389
 H         -2.1484593049        0.2223762264        0.9388689969
 H         -2.6162674291        3.1215853090        0.9101631181
 H         -3.3890081982        1.6464346022        2.8403906412
 H         -2.2756291688        2.9227881853        3.3564845580
 H         -1.6832865242        1.2746783016        3.1726713175
 H         -0.9827501112        3.2134766182       -0.7390986950
 H          1.7881262832        3.6778792509        0.1484516262
 H          0.5509836029        3.0935811637       -2.5986038069
 H          2.2302507303        3.5875470697       -2.3155002981
 H          0.9052513998        4.7065718680       -1.9648657374
 C          3.3494046543        0.2208481889       -0.1661331314
 C          2.7374460154       -0.7912513929        0.5799996887
 C          4.4980656827       -0.0376845659       -0.8965539912
 C          3.2858056553       -2.0731482742        0.5445887279
 C          4.4357547323       -2.3290714179       -0.1755228662
 C          5.0481597996       -1.3080455979       -0.8857121708
 H          4.9470188395        0.7608985225       -1.4661266526
 H          4.8548008474       -3.3231066757       -0.1863855795
 H          5.9494308633       -1.5019650058       -1.4466723194
 H          2.8023304352       -2.8543921270        1.1111203806
 C          1.5568343992       -0.5229574308        1.4151453548
 O          0.7037012533       -1.3442710216        1.6646028974
 H          1.5067980198        0.4866170611        1.8529995003
