  56
        -94.14832106
 C          2.7518228240       -0.8723126519       -0.2529703808
 C          4.0211334788       -1.6934420953       -0.4765621906
 C          1.5068591035       -1.6328417227       -0.7276706317
 O          0.8097547547       -1.1990099361       -1.6371153259
 O          2.2190165345        1.7252782315        0.7095967993
 O          0.0488286817        1.5713803762       -2.0735938476
 N          2.8221053303        0.3677529804       -0.9923501492
 C          2.3948281790        1.5416428041       -0.4796600308
 C          2.1914870813        2.6541186093       -1.5182547428
 C          1.1825184042        2.2032071440       -2.6000003734
 N          1.7236312890        3.8849906164       -0.9117734832
 N          1.3068812162       -2.8196259537       -0.1500940466
 C          0.2656198691       -3.7419194668       -0.5683529889
 C          0.7021770615       -5.1701666578       -0.2819482440
 C         -1.0605799275       -3.4206097527        0.1547510933
 O         -1.5334628221       -4.1393940768        1.0062962042
 N         -1.6299352587       -2.2894954858       -0.2971595358
 O         -2.7262562404       -0.1049703420        2.0981155172
 O         -1.9479279568        0.4353124727        0.0569795695
 C         -2.8191391362       -1.7365662714        0.3094815722
 C         -2.4913252751       -0.3968452551        0.9596236446
 C         -3.9241915336       -1.5452146139       -0.7305806363
 H          2.6354227471       -0.6098524871        0.8029286070
 H          4.8900971700       -1.0999269225       -0.2035717782
 H          4.1074357681       -1.9756328835       -1.5241961439
 H          4.0139660957       -2.5961330589        0.1269953105
 H          0.2554017184        0.6440896477       -1.8623333274
 H          2.8383132416        0.2622319772       -1.9962885700
 H          3.1603844625        2.8580153455       -1.9958882474
 H          1.6817382377        1.5666191681       -3.3432490875
 H          0.8264620798        3.1046613937       -3.1065191252
 H          2.2107404201        4.0306835406       -0.0316021189
 H          0.7384179148        3.7817884792       -0.6861146870
 H          1.7714966715       -3.0325114019        0.7184584544
 H          0.1184387923       -3.5835051726       -1.6430064458
 H          0.7603256508       -5.3282229458        0.7922238403
 H          1.6687600181       -5.3748545138       -0.7359250705
 H         -0.0328205532       -5.8626406454       -0.6812152719
 H         -1.1164800034       -1.6925869419       -0.9349518901
 H         -3.1360757021       -2.4312934809        1.0944622920
 H         -4.8103480897       -1.1271291281       -0.2602777563
 H         -4.1796102099       -2.5046719078       -1.1727248402
 H         -3.5840573164       -0.8712720173       -1.5133659602
 C         -1.5238453550        1.6742594027        0.5061026227
 C         -0.5196976424        1.7811289668        1.4756626977
 C         -2.1374412358        2.8047344024       -0.0075290618
 C         -0.1780981628        3.0515531178        1.9404306993
 C         -0.7890001418        4.1794924760        1.4297378692
 C         -1.7586184571        4.0563124705        0.4443339996
 H         -2.8999050266        2.6883731424       -0.7610006003
 H         -0.5076579251        5.1573282238        1.7899244745
 H         -2.2285335305        4.9373667183        0.0343216121
 H          0.5972237167        3.1371655270        2.6861068252
 C          0.2270418435        0.6171657069        1.9635634510
 O          0.2352112068       -0.4868179562        1.4692426033
 H          0.8297729930        0.8350944621        2.8628333813
