  56
        -94.14829545
 C         -1.0855070773       -2.9674424719       -1.1981208574
 C         -0.6512978832       -3.1785790116       -2.6395671732
 C         -2.0732562844       -1.7878357691       -1.0934195165
 O         -2.3033849835       -1.0367722124       -2.0305764334
 O         -0.8916136004       -3.1946295311        1.6229681757
 O          2.2606901859       -1.0061986882        0.0412455065
 N          0.0868668187       -2.7535271735       -0.3663447156
 C          0.0981212090       -2.8978632904        0.9659762273
 C          1.4727968275       -2.7186901801        1.6205233420
 C          2.0193107679       -1.2928555179        1.3987253216
 N          1.4489534742       -2.9898031829        3.0440114153
 N         -2.6705590726       -1.7093239772        0.0986093065
 C         -3.6639608761       -0.7047980647        0.4420006498
 C         -4.4529176011       -1.1666441859        1.6553150212
 C         -2.9500259987        0.6337803158        0.7197159339
 O         -2.8057337612        1.0998058670        1.8263697291
 N         -2.5294877489        1.2294365373       -0.4195571099
 O          0.0920056772        0.6168153140       -0.3667424792
 O          0.6857782564        2.6918949825       -0.9770737105
 C         -1.5942505645        2.3279215344       -0.3890684668
 C         -0.1902331012        1.7756336558       -0.5562918643
 C         -1.9430557758        3.3881098365       -1.4272679467
 H         -1.5985239614       -3.8582288347       -0.8111892051
 H         -0.1969336963       -2.2677853178       -3.0225163333
 H         -1.5168801756       -3.4080148117       -3.2543508988
 H          0.0617304463       -3.9963936568       -2.7063401559
 H          1.5352027323       -0.4379831991       -0.2718630006
 H          0.9148924376       -2.3766578751       -0.8094424800
 H          2.1674952181       -3.4250463987        1.1480778204
 H          2.9720423326       -1.2254150542        1.9342576550
 H          1.3214869660       -0.5704353360        1.8353376834
 H          1.0666478642       -3.9167959579        3.2045061471
 H          0.8148334524       -2.3377149753        3.4976083974
 H         -2.3172371480       -2.2966890476        0.8550511612
 H         -4.3173860134       -0.5717220529       -0.4296397180
 H         -5.2322765062       -0.4453054999        1.8837710776
 H         -3.7905459099       -1.2355436744        2.5145575406
 H         -4.9054268188       -2.1370721912        1.4683992305
 H         -2.5485872011        0.6655871052       -1.2690263777
 H         -1.6313687457        2.7490205278        0.6269283791
 H         -1.9173738624        2.9581026060       -2.4261739792
 H         -1.2368434433        4.2109570837       -1.3754834034
 H         -2.9437068555        3.7650537047       -1.2354990656
 C          2.0336530270        2.3588822795       -0.9760204658
 C          2.7093697668        2.1079890457        0.2269121897
 C          2.7018958066        2.3030161676       -2.1877055401
 C          4.0654990961        1.7852314642        0.1708999662
 C          4.7307750029        1.7249626488       -1.0367300490
 C          4.0502505200        1.9908740719       -2.2151514129
 H          2.1557534630        2.5013872295       -3.0968811042
 H          5.7785396500        1.4694865740       -1.0639805817
 H          4.5668928104        1.9457824243       -3.1616304212
 H          4.5895964273        1.5827666571        1.0929719988
 C          2.0377931444        2.1958501334        1.5315435355
 O          0.8997630046        2.5415661423        1.7223121575
 H          2.6981274703        1.9164209552        2.3751190493
