  56
        -94.14828492
 C          1.8546842820       -2.2606789738        0.1605026080
 C          2.8146936792       -3.4122721821        0.4188105754
 C          0.4547567726       -2.8250464603       -0.1659916495
 O          0.2611828742       -3.4770017969       -1.1712442750
 O          0.4424522921       -0.2388361570       -1.1485549191
 O          0.5536623421        1.9603174603       -2.6788296356
 N          2.3172550114       -1.4790132977       -0.9712472238
 C          1.5558883729       -0.5586323537       -1.5564279674
 C          2.1833239254        0.1295649785       -2.7685526389
 C          1.9135567706        1.6506660480       -2.6616876795
 N          3.5929612175       -0.2106663139       -2.8765078748
 N         -0.4728319160       -2.5616819336        0.7650813919
 C         -1.8511773410       -2.9853589216        0.6474419575
 C         -2.2483383700       -3.8665315682        1.8278451219
 C         -2.7948288131       -1.7748924099        0.5505437424
 O         -3.9214810247       -1.7871939212        1.0016701351
 N         -2.2636797902       -0.7233904429       -0.0981419484
 O         -2.5395095060        2.8346178165        0.2951644122
 O         -0.9347163618        1.3036154248        0.6974120391
 C         -2.9673599892        0.5230716822       -0.2373480314
 C         -2.1516323945        1.6994371791        0.2764174222
 C         -3.3327137413        0.8057642433       -1.7007494775
 H          1.7889339747       -1.6028437428        1.0354472775
 H          2.5047569193       -3.9595860394        1.3049772686
 H          3.8266953206       -3.0425389356        0.5708305570
 H          2.8012453356       -4.0917436602       -0.4305396301
 H          0.1280165581        1.3305591928       -2.0660549449
 H          3.1612316308       -1.7501372434       -1.4582900557
 H          1.6617644391       -0.2539152964       -3.6536326689
 H          2.3702518633        2.1686520631       -3.5118702310
 H          2.3869652986        2.0227643427       -1.7336536181
 H          4.1303368266        0.3249211382       -2.2006681316
 H          3.9434517577        0.0242600245       -3.7980666731
 H         -0.2702567199       -1.9175987916        1.5186532160
 H         -1.9296249983       -3.5507464767       -0.2898680122
 H         -2.0577870907       -3.3407927402        2.7607153512
 H         -1.6840839400       -4.7951166596        1.8178969393
 H         -3.3102878174       -4.0852778244        1.7688182990
 H         -1.3123056223       -0.7548084190       -0.4447721307
 H         -3.8856475744        0.4453809395        0.3595688243
 H         -4.0054824608        0.0332072526       -2.0618544473
 H         -2.4359016798        0.8098531213       -2.3167121883
 H         -3.8212711629        1.7729316751       -1.7775193989
 C          0.0718500653        2.1922594429        0.9533155818
 C          0.9845348400        1.8790723694        1.9784072874
 C          0.2469461501        3.3473425863        0.1993425465
 C          2.0386729546        2.7622907929        2.2318911100
 C          2.2041436682        3.9079597228        1.4838489565
 C          1.3079234356        4.1933928185        0.4629203084
 H         -0.4395835861        3.5745549406       -0.5997915805
 H          3.0254988400        4.5770822991        1.6895144397
 H          1.4351283420        5.0817829270       -0.1363916060
 H          2.7347112944        2.5247708788        3.0237050431
 C          0.8924806204        0.6603549251        2.7771998401
 O          0.1980411534       -0.3050680321        2.5671237678
 H          1.5812432839        0.6687989622        3.6469144852
