  56
        -94.14827036
 C          0.6872173287       -3.3513532092       -0.8383457281
 C          0.7703299424       -3.9740243864       -2.2215173919
 C         -0.7773601748       -3.1532328920       -0.4030405270
 O         -1.7176371135       -3.2016505945       -1.1808552449
 O          1.5677961646       -1.8200411733        1.4003235115
 O          4.4346322871        1.1746318656        0.4446123796
 N          1.3519953538       -2.0609959762       -0.8378396580
 C          1.7163980194       -1.3973649089        0.2596055861
 C          2.3721058181       -0.0470615083       -0.0103034068
 C          3.8389217293       -0.0980361096        0.4463473054
 N          2.3112307895        0.2916178273       -1.4203051632
 N         -0.9008192373       -2.9319566815        0.9129155539
 C         -2.1673501894       -2.5645209380        1.5283998653
 C         -2.0676845562       -2.7162340305        3.0359085517
 C         -2.4364406843       -1.1093515989        1.1234716451
 O         -2.1294551685       -0.1524683497        1.8069284728
 N         -3.0024205200       -0.9866964203       -0.0980609659
 O         -0.6243782874        0.3451467791       -0.8753043696
 O         -1.6427079798        2.1276476832        0.0293983706
 C         -3.0261183851        0.3337332248       -0.7055648227
 C         -1.6267970508        0.9174673973       -0.5329717106
 C         -3.3835396226        0.2278735909       -2.1808030181
 H          1.1826686048       -3.9839871772       -0.0903797894
 H          0.2062010344       -3.3712557050       -2.9289033909
 H          0.3371760353       -4.9701730221       -2.2040793477
 H          1.8055613651       -4.0404026694       -2.5451838998
 H          3.9772121571        1.7303203288        1.0865233578
 H          1.4840470613       -1.5716881174       -1.7142058781
 H          1.8460451804        0.6778781827        0.6389014675
 H          4.4145999111       -0.6975994443       -0.2615204881
 H          3.8888747945       -0.5609151683        1.4396933300
 H          1.3796532848        0.6191979969       -1.6544580881
 H          2.9685091256        1.0395516357       -1.6173131960
 H         -0.0520199754       -2.6940739817        1.4319694897
 H         -2.9472315801       -3.2093177982        1.1077117587
 H         -3.0281265924       -2.4985001629        3.4949139117
 H         -1.3327991096       -2.0133247803        3.4208209472
 H         -1.7683607746       -3.7282871760        3.2943962393
 H         -2.9379959319       -1.7895620347       -0.7230223392
 H         -3.7353287475        0.9680937550       -0.1616653675
 H         -3.4298998033        1.2155314567       -2.6325897506
 H         -4.3516912343       -0.2536899464       -2.2897572908
 H         -2.6320411575       -0.3651131813       -2.6978945095
 C         -0.4177840293        2.6344829799        0.4589643379
 C          0.5000177975        3.1899459051       -0.4381776243
 C         -0.1248866129        2.5416090546        1.8101535358
 C          1.7168519288        3.6631945016        0.0595432463
 C          2.0026275225        3.5913140299        1.4080594203
 C          1.0814214427        3.0302895592        2.2830205390
 H         -0.8411853156        2.0639316607        2.4602785642
 H          2.9428887524        3.9703810217        1.7806875187
 H          1.3074391329        2.9588773033        3.3360884168
 H          2.4220466605        4.0816547487       -0.6431520878
 C          0.2184366703        3.2788130626       -1.8779517467
 O          1.0215994924        3.5984785077       -2.7154597498
 H         -0.8235645262        3.0266762706       -2.1533822368
