  56
        -94.14817461
 C         -0.4413819929       -2.4579328520       -1.9166509301
 C         -0.2950178093       -1.9698916911       -3.3487852185
 C         -1.7352542322       -1.9037502441       -1.2891446185
 O         -2.4574799692       -1.1086076479       -1.8698504016
 O          0.4735335009       -3.5550014331        0.5190718610
 O          3.0800241138       -0.4441449471       -1.0217716874
 N          0.7268583161       -2.0568188899       -1.1495209080
 C          1.1000203390       -2.6436094886       -0.0097105033
 C          2.4205690647       -2.1596947786        0.6158158915
 C          2.7351944883       -0.6881240614        0.3269075888
 N          2.4386220381       -2.3774275603        2.0520296866
 N         -1.9970835420       -2.4104334631       -0.0801286814
 C         -3.1216638748       -1.9836587402        0.7379051150
 C         -3.3689308864       -3.0013527158        1.8376017747
 C         -2.7828082113       -0.5965541385        1.3185080668
 O         -2.4257145939       -0.4169444204        2.4631888258
 N         -2.9398418343        0.3927203619        0.4096765572
 O         -0.2527060629        0.5361363734        0.2768114764
 O         -0.2277838277        2.7387708579        0.7292960016
 C         -2.3459859103        1.6854302072        0.6493052384
 C         -0.8335286145        1.5624296940        0.5072694040
 C         -2.9018998428        2.7262204733       -0.3144446063
 H         -0.4961557095       -3.5542106486       -1.8753672676
 H         -1.1367942583       -2.3150624679       -3.9420357005
 H          0.6284680715       -2.3404277246       -3.7869772285
 H         -0.2970157468       -0.8823456276       -3.3634343509
 H          3.8783243926       -0.9447528627       -1.2277973189
 H          1.2175546102       -1.2300414961       -1.4617295155
 H          3.2169348311       -2.7893552036        0.1851891431
 H          3.5451773676       -0.3729496709        0.9965312143
 H          1.8541922141       -0.0765676161        0.5286042482
 H          2.1106000132       -3.3225489511        2.2363176742
 H          1.7699013359       -1.7509431049        2.4923889556
 H         -1.2956182996       -3.0032145092        0.3610102199
 H         -3.9954127781       -1.8840912336        0.0821321740
 H         -2.5160881854       -3.0221138483        2.5116036937
 H         -3.5187242010       -3.9907590985        1.4133066631
 H         -4.2484998597       -2.7195973422        2.4095665741
 H         -3.0124606994        0.1116461232       -0.5687187369
 H         -2.5506129659        1.9637141411        1.6914778235
 H         -2.4862468463        3.7035774746       -0.0879386954
 H         -3.9839813146        2.7656923412       -0.2235910024
 H         -2.6363003576        2.4605633065       -1.3346530379
 C          1.1429772901        2.8285511488        0.5635716697
 C          1.7649601923        2.5163419196       -0.6531866094
 C          1.8944588170        3.2504685121        1.6504742994
 C          3.1539400660        2.6264335624       -0.7354629561
 C          3.8996256511        3.0528636909        0.3443473699
 C          3.2677078348        3.3705378285        1.5375345707
 H          1.3875683817        3.4780161541        2.5752009433
 H          4.9723548441        3.1371057526        0.2619305927
 H          3.8456836162        3.7024746817        2.3864019123
 H          3.6369409410        2.3764979536       -1.6678357226
 C          1.0163515930        2.0965006491       -1.8465240950
 O         -0.1676262566        2.2162887216       -2.0290200113
 H          1.6705753733        1.6503539278       -2.6204853321
