  56
        -94.14817357
 C         -0.4399520616       -2.4514866963       -1.9160155304
 C         -0.2978107766       -1.9572123429       -3.3464753515
 C         -1.7342823227       -1.9035576149       -1.2840619800
 O         -2.4604340713       -1.1089895956       -1.8605908192
 O          0.4829533780       -3.5563845334        0.5129200319
 O          3.0773346758       -0.4304455445       -1.0179931831
 N          0.7283321107       -2.0497547461       -1.1492358469
 C          1.1053379643       -2.6403043344       -0.0126713618
 C          2.4252465919       -2.1548545333        0.6129898286
 C          2.7348027353       -0.6810445535        0.3299953716
 N          2.4461954182       -2.3791024576        2.0481621735
 N         -1.9918191668       -2.4150087586       -0.0760515135
 C         -3.1141123078       -1.9916604001        0.7469489151
 C         -3.3554303888       -3.0114300339        1.8460284472
 C         -2.7739838869       -0.6051260503        1.3280564706
 O         -2.4073077431       -0.4276135160        2.4700599549
 N         -2.9407440928        0.3861649278        0.4230471054
 O         -0.2555097197        0.5343429491        0.2662787235
 O         -0.2290868762        2.7338684814        0.7331327279
 C         -2.3470111652        1.6792306476        0.6614110489
 C         -0.8355687348        1.5585744303        0.5076595553
 C         -2.9112048259        2.7214146688       -0.2960025202
 H         -0.4912251816       -3.5480806747       -1.8788146714
 H         -0.3071969118       -0.8697187025       -3.3572196723
 H         -1.1372633485       -2.3059468414       -3.9408674616
 H          0.6280047026       -2.3197377473       -3.7862748935
 H          3.8771523056       -0.9274170501       -1.2268326687
 H          1.2145751857       -1.2189552766       -1.4576657043
 H          3.2229590430       -2.7800359277        0.1783542752
 H          3.5445484890       -0.3662565562        1.0000795718
 H          1.8522139067       -0.0729019547        0.5351090431
 H          2.1220244414       -3.3262734047        2.2285293777
 H          1.7758471795       -1.7572005662        2.4924646299
 H         -1.2877689121       -3.0075144937        0.3612873637
 H         -3.9905213775       -1.8923628340        0.0947442251
 H         -2.5009034282       -3.0300945534        2.5179579089
 H         -3.5030124569       -4.0008703661        1.4210261319
 H         -4.2345703866       -2.7331892028        2.4203725035
 H         -3.0185863254        0.1070042771       -0.5555011939
 H         -2.5445190084        1.9549585934        1.7055955486
 H         -2.6530462936        2.4580916342       -1.3187165904
 H         -2.4945554353        3.6986160916       -0.0706782634
 H         -3.9926069055        2.7598208012       -0.1968714048
 C          1.1405592819        2.8249815551        0.5586239349
 C          1.7538875151        2.5222439792       -0.6648897943
 C          1.8996930940        3.2381059281        1.6435643753
 C          3.1422110151        2.6330819466       -0.7561697504
 C          3.8954894810        3.0511412921        0.3216314184
 C          3.2721178027        3.3591928704        1.5218035160
 H          1.3992524070        3.4584177331        2.5735524819
 H          4.9676202064        3.1358594438        0.2322365880
 H          3.8562370024        3.6841300677        2.3691806395
 H          3.6187646986        2.3905287029       -1.6937877199
 C          0.9966962630        2.1112129986       -1.8558039757
 O         -0.1884738973        2.2325807783       -2.0290809936
 H          1.6453153577        1.6709013616       -2.6378514092
