  56
        -94.14815141
 C         -2.1280382988        0.1230166277        0.8433616590
 C         -3.5418233600        0.2525898425        1.4219073349
 C         -1.6774871288        1.4832650756        0.3124355485
 O         -1.7895297122        1.7730395723       -0.8704251040
 O         -1.2044469429       -2.5534498098        0.8864485381
 O         -2.4169131684       -4.8354656022       -0.1972073334
 N         -2.1005666382       -0.8192933650       -0.2475056189
 C         -1.6422175232       -2.0677802476       -0.1456845036
 C         -1.7392851583       -2.8549062728       -1.4598090201
 C         -1.5351740178       -4.3594999843       -1.1775100676
 N         -3.0112745182       -2.5329356862       -2.0907848109
 N         -1.2371174751        2.3291200195        1.2516016259
 C         -0.7743279567        3.6745241298        0.9509079821
 C         -0.8925864251        4.5479620155        2.1887655930
 C          0.6856210580        3.6058013772        0.4613063649
 O          1.6236262744        4.0582331408        1.0777238938
 N          0.7902317286        2.9917342236       -0.7349429939
 O          3.3552036723        0.6269189337       -1.6032583635
 O          1.4620885131        0.5210687110       -0.3848607256
 C          2.0660134354        2.6376157176       -1.2959241853
 C          2.3868974522        1.1549111267       -1.1307634000
 C          2.1519954623        3.0112077077       -2.7759779720
 H         -1.4399841535       -0.2398326329        1.6113392729
 H         -3.8789146767       -0.7151167368        1.7847598638
 H         -4.2271167136        0.5983943314        0.6512145162
 H         -3.5490063146        0.9614763242        2.2452579595
 H         -2.1871778442       -4.3738194034        0.6231721972
 H         -2.4580173763       -0.4981441214       -1.1379768801
 H         -0.9324603932       -2.5077457375       -2.1170905453
 H         -0.4911240525       -4.5256790554       -0.8807231532
 H         -1.7416069935       -4.9351984084       -2.0847267607
 H         -3.7614588952       -2.9446910994       -1.5419020256
 H         -3.0573245865       -2.9485753409       -3.0154419384
 H         -0.9244233481        1.9521603757        2.1348787244
 H         -1.3991086085        4.0557699472        0.1347885315
 H         -0.2221342078        4.1784053055        2.9606479726
 H         -1.9137608664        4.5478468726        2.5611827033
 H         -0.5994892393        5.5655092424        1.9477889173
 H         -0.0431719244        2.5890808323       -1.1514684304
 H          2.8257377988        3.1890931887       -0.7245305859
 H          3.1017463892        2.6748157398       -3.1817307041
 H          2.0727247026        4.0882263805       -2.8914434798
 H          1.3429000260        2.5380303057       -3.3286441334
 C          1.6041471055       -0.8387108228       -0.1726141703
 C          1.5634052189       -1.3400497516        1.1371600488
 C          1.7956824203       -1.6994798157       -1.2429150940
 C          1.7443884653       -2.7102312562        1.3331106962
 C          1.9408322687       -3.5626679097        0.2669801824
 C          1.9591008909       -3.0556578374       -1.0227008248
 H          1.8244072550       -1.3012916140       -2.2452496436
 H          2.0759118732       -4.6197091825        0.4371153495
 H          2.1065210452       -3.7154765431       -1.8645133984
 H          1.7074340370       -3.0991886728        2.3392356466
 C          1.2933062043       -0.5005917078        2.3052722430
 O          0.7814184653        0.5919218124        2.3067213563
 H          1.5751149891       -0.9890222291        3.2585481992
