  56
        -94.14814908
 C         -2.5159981916        1.2102470862       -2.1568848177
 C         -2.2268437966        1.5663157302       -3.6046150408
 C         -2.0539665467        2.3184356005       -1.1981294449
 O         -1.3813276467        3.2742168944       -1.5482708521
 O         -3.2428987432       -0.5861041944       -0.1599253265
 O         -0.5351036536       -3.2992737358        1.3804380001
 N         -1.8028608004       -0.0049447286       -1.7859451622
 C         -2.2086540964       -0.7947922316       -0.7822099726
 C         -1.3219965503       -1.9927997541       -0.4738395446
 C         -1.1690049572       -2.0827530259        1.0590652994
 N         -1.9327474259       -3.1772801535       -1.0570272177
 N         -2.4310629828        2.0916489002        0.0717623898
 C         -1.7890906855        2.7434059785        1.2045991088
 C         -2.4944167098        2.3559501969        2.4912366435
 C         -0.3354627027        2.2473448246        1.1810709660
 O          0.0413009739        1.2326528577        1.7374359687
 N          0.4842770299        3.0127669489        0.4289284895
 O          0.9287712031        0.6327188511       -1.1124570571
 O          2.5765913713        0.2822230077        0.3763423598
 C          1.8118975779        2.5054218978        0.1362583796
 C          1.6936025552        1.0396534072       -0.2772908357
 C          2.4403764167        3.3079532214       -0.9953629307
 H         -3.5833323553        1.0190358191       -1.9975911753
 H         -2.7906695767        2.4514500896       -3.8850305684
 H         -2.5018106119        0.7426868515       -4.2575675660
 H         -1.1683700650        1.7848652263       -3.7231175280
 H         -0.1259114489       -3.2146729836        2.2524919970
 H         -0.8603383243       -0.0965266009       -2.1352577061
 H         -0.3325459302       -1.8712745307       -0.9286081891
 H         -2.1694412176       -2.0439502503        1.5143929017
 H         -0.5926523790       -1.2172599657        1.4111076298
 H         -2.8935243757       -3.2451498963       -0.7309907622
 H         -1.4384690029       -3.9905739036       -0.7004764249
 H         -2.9308619339        1.2267643932        0.2706084548
 H         -1.8093167379        3.8271735581        1.0434665177
 H         -2.0592644201        2.8925592274        3.3299292403
 H         -2.3729736472        1.2888159367        2.6629709493
 H         -3.5531055382        2.5921543975        2.4266217142
 H          0.0457545249        3.5955631874       -0.2818978552
 H          2.4226433812        2.5534482495        1.0454887989
 H          1.8288417201        3.2173152612       -1.8906730073
 H          3.4419045406        2.9429093739       -1.2085417715
 H          2.5011891799        4.3554742284       -0.7122154510
 C          2.6085249929       -1.0812667212        0.0998575285
 C          2.3030718169       -1.9880925392        1.1203786172
 C          2.9407215873       -1.5298567645       -1.1674304976
 C          2.3660201781       -3.3543465676        0.8412080034
 C          2.7063270631       -3.8028326550       -0.4190396036
 C          2.9865056658       -2.8905447900       -1.4240533909
 H          3.1555729601       -0.8138367131       -1.9461742296
 H          2.7434840943       -4.8613328659       -0.6240569457
 H          3.2409029978       -3.2348117753       -2.4149025725
 H          2.1358590543       -4.0483248443        1.6345861689
 C          1.8619815890       -1.5246348643        2.4440688521
 O          1.3624703191       -2.2480674086        3.2738760386
 H          1.9948379588       -0.4475176424        2.6279168501
