  56
        -94.14814793
 C         -1.1207481807       -0.7466366876       -2.1368642687
 C          0.1061790888       -0.8739895753       -3.0224618886
 C         -1.3219730240        0.6925405720       -1.6281194840
 O         -0.4542081338        1.5495568262       -1.6840909692
 O         -3.1900172264       -1.7739954994       -0.5403567117
 O         -3.7342310661       -4.2165203836        0.6459857862
 N         -0.9842833010       -1.6051741570       -0.9726177601
 C         -2.0216172368       -2.0303700534       -0.2492730960
 C         -1.6855620244       -2.9127712897        0.9414231763
 C         -2.3410285933       -4.2869546001        0.6746022454
 N         -0.2501778446       -3.0594644675        1.1001938026
 N         -2.5391071918        0.8830585048       -1.0978894859
 C         -2.8697819130        2.0419157665       -0.2788621744
 C         -4.3686705673        2.1002727932       -0.0497070134
 C         -2.0989606940        1.8179066774        1.0357813202
 O         -2.5536907516        1.1978626143        1.9698916843
 N         -0.8417139165        2.3170497164        0.9999471117
 O          0.9334383769       -0.2382621856        0.9880593135
 O          1.9483640460        1.6671224276        0.3761324373
 C          0.1849732827        1.8647772368        1.9251130494
 C          1.0771939752        0.9527640075        1.0925598018
 C          0.9473539816        3.0270619924        2.5438163898
 H         -2.0273913657       -1.0560066596       -2.6717556483
 H          0.0051535910       -0.2237543025       -3.8869617336
 H          0.2227872227       -1.9007263709       -3.3588834919
 H          0.9934016105       -0.5752490170       -2.4690526633
 H         -3.9777966815       -3.4198496362        0.1428703538
 H         -0.0578772191       -1.8062528682       -0.6204654597
 H         -2.1947486191       -2.4696907188        1.8162763957
 H         -2.0754212935       -4.9808325903        1.4783449352
 H         -1.9403537673       -4.6859455767       -0.2714047899
 H         -0.0510377704       -3.7686486480        1.7970335614
 H          0.1586453833       -2.1880566318        1.4265441641
 H         -3.1303268368        0.0624289775       -0.9631913055
 H         -2.5024309143        2.9390734359       -0.7883397421
 H         -4.6756823884        1.2395961868        0.5398510002
 H         -4.8981926311        2.0967734717       -0.9987333288
 H         -4.6242277603        3.0026527058        0.4987743836
 H         -0.5019982086        2.6831271958        0.1178319194
 H         -0.3182758345        1.2643387468        2.6903269251
 H          0.2774659531        3.6152068659        3.1648856978
 H          1.3631947180        3.6627815894        1.7666365737
 H          1.7591817811        2.6418252621        3.1544309743
 C          2.8498534713        1.0025785940       -0.4325549512
 C          3.8115428306        0.1408475844        0.1135538183
 C          2.7908309819        1.2309369155       -1.7983178668
 C          4.7026076300       -0.4902081165       -0.7569068432
 C          4.6509109816       -0.2585702691       -2.1167473292
 C          3.6975439246        0.6052865969       -2.6366572417
 H          2.0179106069        1.8800998525       -2.1795658434
 H          5.3498983644       -0.7511177961       -2.7750041496
 H          3.6511819169        0.7837777333       -3.7000173136
 H          5.4443116203       -1.1597207224       -0.3463819330
 C          3.9268508766       -0.0895599570        1.5596531159
 O          3.3409865991        0.5050204197        2.4285757008
 H          4.6508752112       -0.8898977581        1.8098321515
