  56
        -94.14814710
 C         -1.1230335362       -0.7467552536       -2.1403164064
 C          0.1000976476       -0.8654677018       -3.0323359683
 C         -1.3302667426        0.6906398387       -1.6285672523
 O         -0.4677819194        1.5527600729       -1.6878083823
 O         -3.1782507746       -1.7876076321       -0.5341408278
 O         -3.7044756141       -4.2328527233        0.6532301471
 N         -0.9758520096       -1.6064710206       -0.9782682540
 C         -2.0068834454       -2.0382835471       -0.2499385812
 C         -1.6597710081       -2.9205158203        0.9376733303
 C         -2.3108279708       -4.2972802950        0.6734542823
 N         -0.2227180929       -3.0604676383        1.0880800854
 N         -2.5461198346        0.8726619697       -1.0926572354
 C         -2.8839743124        2.0294336595       -0.2737053263
 C         -4.3824823627        2.0736074107       -0.0386281524
 C         -2.1066625872        1.8159210206        1.0389042909
 O         -2.5546913881        1.1998036506        1.9787766099
 N         -0.8521069300        2.3211092005        0.9947338992
 O          0.9271786946       -0.2259915687        0.9879911587
 O          1.9430703690        1.6766143846        0.3694883412
 C          0.1801706800        1.8799386083        1.9190091876
 C          1.0718238897        0.9652817033        1.0891349407
 C          0.9401487838        3.0498228896        2.5260857408
 H         -2.0304606113       -1.0605238660       -2.6713290611
 H         -0.0096660360       -0.2150489427       -3.8956312716
 H          0.2214427411       -1.8911102153       -3.3704533317
 H          0.9883078968       -0.5615736460       -2.4833158533
 H         -3.9545198653       -3.4367135070        0.1524224870
 H         -0.0465458685       -1.8037823607       -0.6318023746
 H         -2.1657328540       -2.4806441450        1.8159777167
 H         -2.0374724390       -4.9907157572        1.4749669372
 H         -1.9141057248       -4.6936980634       -0.2752851569
 H         -0.0164020661       -3.7695540329        1.7829702339
 H          0.1829016353       -2.1873572581        1.4139229883
 H         -3.1311607966        0.0478518572       -0.9563458982
 H         -2.5272230436        2.9294441893       -0.7857247656
 H         -4.9158650568        2.0634608931       -0.9854314597
 H         -4.6446055812        2.9741878005        0.5096944219
 H         -4.6785935480        1.2108714917        0.5535146686
 H         -0.5176544405        2.6827023155        0.1086299409
 H         -0.3175402046        1.2830123739        2.6905784621
 H          0.2699105919        3.6402743468        3.1445818644
 H          1.3511972039        3.6810379553        1.7427104704
 H          1.7551913546        2.6723976950        3.1372905861
 C          2.8459471261        1.0077135038       -0.4337513683
 C          3.8028495936        0.1447228301        0.1188716260
 C          2.7934580508        1.2323802087       -1.8004044859
 C          4.6954943681       -0.4918029319       -0.7459179111
 C          4.6503167823       -0.2638349460       -2.1066255914
 C          3.7020169401        0.6017016492       -2.6330131481
 H          2.0246075375        1.8833552296       -2.1868431165
 H          5.3506083082       -0.7603771547       -2.7604788397
 H          3.6612128087        0.7776601661       -3.6970357113
 H          5.4333471340       -1.1623939588       -0.3302335621
 C          3.9123471362       -0.0808976203        1.5662172133
 O          3.3266466232        0.5196890004        2.4310604336
 H          4.6319789696       -0.8835209145        1.8216656327
