  56
        -94.14812398
 C         -1.8393564102       -3.0863017412        0.0964523793
 C         -2.6222514234       -4.3156020694       -0.3392961129
 C         -2.7649676969       -1.8742234959        0.2812860090
 O         -3.8181952155       -1.7499471053       -0.3077045213
 O          0.7699389467       -2.0343798436        0.4773480998
 O         -0.7908596152       -0.7862983836       -2.8963765439
 N         -0.8702772164       -2.7254406178       -0.9236652462
 C          0.3337618450       -2.1918467565       -0.6553721944
 C          1.1648222276       -1.9114831778       -1.9127499455
 C          0.5983983157       -0.7108130033       -2.7065932152
 N          2.5673558477       -1.6759181674       -1.6294676379
 N         -2.2717156037       -0.9538275403        1.1333733745
 C         -2.7855237538        0.3976831405        1.1557608699
 C         -3.0288881279        0.8598235748        2.5880367908
 C         -1.8049298140        1.2549187682        0.3551810741
 O         -1.1866249604        0.7904172089       -0.5899125143
 N         -1.6670422590        2.5393517247        0.7111778932
 O          0.9571776060        2.5897504552       -1.5372429556
 O          1.0158703283        2.0723196845        0.6640558287
 C         -0.7798124087        3.4035521769       -0.0451498064
 C          0.4778432955        2.6165391952       -0.4405249481
 C         -1.4644902425        3.9641946378       -1.2881832115
 H         -1.2768712499       -3.2733934906        1.0170588873
 H         -1.9448062730       -5.1190474938       -0.6163134393
 H         -3.2511591494       -4.0607633650       -1.1889050699
 H         -3.2627376845       -4.6516673720        0.4714540125
 H         -1.2065303956       -0.2806439708       -2.1810991955
 H         -1.2214554032       -2.6262554811       -1.8691185414
 H          1.0980479412       -2.8080283363       -2.5435628974
 H          1.0704823744       -0.7070820814       -3.6931352256
 H          0.8712429940        0.2159267804       -2.1942399108
 H          2.8950824257       -2.3650499464       -0.9591004358
 H          2.6773314473       -0.7665679987       -1.1928429749
 H         -1.3296257926       -1.0550373300        1.4899336696
 H         -3.7308715485        0.3672421378        0.5942146343
 H         -2.0808114220        0.9829328588        3.1043975371
 H         -3.6091036720        0.0996291162        3.1054575602
 H         -3.5954808475        1.7877711421        2.6149231253
 H         -2.1346413343        2.9019311510        1.5233490216
 H         -0.4521276781        4.2132182732        0.6166354546
 H         -1.7670964830        3.1453579564       -1.9350930881
 H         -0.7719201119        4.5951205233       -1.8370899599
 H         -2.3393184572        4.5450288302       -1.0077929456
 C          2.1994920183        1.3671480882        0.6311843547
 C          2.3123220744        0.2387533204        1.4613973246
 C          3.2836515687        1.7817075582       -0.1318075758
 C          3.5278501677       -0.4449481632        1.5001364579
 C          4.6029379145       -0.0323374437        0.7389549237
 C          4.4761504536        1.0802638151       -0.0785334621
 H          3.1919268170        2.6461174688       -0.7690763780
 H          5.5350567073       -0.5743794431        0.7753920502
 H          5.3095952340        1.4091098036       -0.6797391205
 H          3.6086234271       -1.3163446740        2.1324789449
 C          1.1925472811       -0.2670106375        2.2594736665
 O          0.0953193874        0.2283690099        2.3564470174
 H          1.4488556840       -1.1806319656        2.8247042504
