  56
        -94.15261311
 C         -0.4003704676       -2.9694305431       -1.7539024317
 C         -0.7578973920       -3.1740786104       -3.2158490676
 C         -1.6415847984       -2.5928934955       -0.9223431592
 O         -2.6819698085       -2.1960976251       -1.4198788019
 O          1.3276065614       -2.4470315145        0.4283952965
 O          3.9567042557       -1.6290604546        0.7469393347
 N          0.5748260945       -1.9004537856       -1.6284868950
 C          1.3319225431       -1.7022057677       -0.5517962627
 C          2.2785921736       -0.5119368152       -0.6188444787
 C          3.7151729165       -1.0612010560       -0.5054021457
 N          2.0964754603        0.2362578823       -1.8503789893
 N         -1.4511803770       -2.7503756654        0.3957605260
 C         -2.4193950042       -2.2858310562        1.3785799544
 C         -2.1161213373       -2.9025478760        2.7324177512
 C         -2.2888250563       -0.7558211650        1.4120574024
 O         -1.5631158576       -0.1664227932        2.1880912551
 N         -3.0128955233       -0.1297502187        0.4589351604
 O         -0.5342440830        0.7541850944       -0.6180091695
 O         -0.7563414219        2.3485622143        0.9452970725
 C         -2.7360140427        1.2747921596        0.2019834788
 C         -1.2223338355        1.4219676854        0.1125828606
 C         -3.3725873360        1.7183940737       -1.1062167149
 H          0.0424742690       -3.8764442305       -1.3233920826
 H          0.1380300673       -3.3529127367       -3.8044878508
 H         -1.2721360491       -2.2935988904       -3.5933131885
 H         -1.4259287468       -4.0249371560       -3.3157031143
 H          3.1833639725       -2.1780811457        0.9684669743
 H          0.6187448636       -1.1984943587       -2.3535372502
 H          2.0893690201        0.0854947015        0.2898432923
 H          4.4315712953       -0.2418152493       -0.6249151935
 H          3.8835096817       -1.7886718421       -1.3150305760
 H          2.8461894248        0.9114412792       -1.9563072273
 H          1.2228904549        0.7527127595       -1.7847897568
 H         -0.4966632842       -2.8886352170        0.7263737166
 H         -3.4178594042       -2.5619651903        1.0223733513
 H         -2.8799534010       -2.6148245807        3.4494938505
 H         -1.1551294694       -2.5380586336        3.0876469663
 H         -2.0865177261       -3.9862356734        2.6567723923
 H         -3.3451363862       -0.6898247394       -0.3227042986
 H         -3.0903001031        1.8738516098        1.0479978937
 H         -3.0911974342        2.7453179318       -1.3235570544
 H         -4.4547577964        1.6464670682       -1.0378635710
 H         -3.0208543653        1.0826364757       -1.9159246466
 C          0.6181162179        2.5033915265        1.0091575528
 C          1.3270254313        3.1118626000       -0.0359024781
 C          1.2766715015        2.0150029060        2.1271151989
 C          2.7157018644        3.2197873895        0.0830057787
 C          3.3717657185        2.7416352498        1.1988662264
 C          2.6518328343        2.1397480764        2.2224077963
 H          0.6939929046        1.5219723535        2.8897365375
 H          4.4450590278        2.8254998872        1.2723144753
 H          3.1660115852        1.7485131931        3.0863111901
 H          3.2711774926        3.6863237098       -0.7184372066
 C          0.6583605946        3.6198403167       -1.2398549628
 O         -0.5290364495        3.6688327245       -1.4366470521
 H          1.3743074523        3.9781867382       -2.0079510290
