  56
        -94.14812288
 C          2.3752554387        0.6775988575        0.7128234757
 C          3.8436873216        1.0481265778        0.9421186152
 C          2.3123833486       -0.6813389943        0.0141800384
 O          2.3291055825       -0.7688643630       -1.2051493273
 O          0.3234241184        2.4955606270        1.4287094014
 O          0.2042836864        5.2319324413        0.7282385009
 N          1.7246673021        1.6513855257       -0.1283146004
 C          0.7407456494        2.4523132270        0.2802801518
 C          0.1870836548        3.3506507405       -0.8339288837
 C         -0.5762629370        4.5386766982       -0.2076738230
 N          1.2860526516        3.7400188498       -1.7053880790
 N          2.3240929547       -1.7353342680        0.8386943763
 C          2.3236173303       -3.1092409622        0.3662549844
 C          2.9124945219       -4.0183321733        1.4329208224
 C          0.8911166716       -3.5501249154        0.0016277663
 O          0.2921019547       -4.4235281683        0.5884748477
 N          0.4035352139       -2.8782763013       -1.0593063575
 O         -3.0562910548       -1.9460776058       -1.4386094927
 O         -1.2560465269       -0.9429163767       -0.5264125484
 C         -0.9387942090       -3.0794329382       -1.5331431460
 C         -1.8861127580       -1.9401670794       -1.1712903819
 C         -0.9672691354       -3.2816436839       -3.0500541291
 H          1.8342009095        0.6527219256        1.6619951631
 H          4.3698258046        1.0782602914       -0.0094022906
 H          4.3205495205        0.3132918888        1.5850964948
 H          3.9091953309        2.0258857331        1.4126729653
 H          0.3699407220        4.6172811758        1.4579806126
 H          1.9927940119        1.6734794704       -1.1037331604
 H         -0.5210893474        2.7493028369       -1.4183107005
 H         -1.5012736997        4.1645547764        0.2501322657
 H         -0.8357199647        5.2602494338       -0.9880224440
 H          0.9293921291        4.2275458935       -2.5206637779
 H          1.8838539288        4.3926911293       -1.2050739734
 H          2.0474003490       -1.6024350917        1.8000110402
 H          2.9287115921       -3.1319369436       -0.5482455872
 H          2.2676159752       -4.0210165428        2.3081439568
 H          3.9078495325       -3.6836255461        1.7137659521
 H          2.9697982741       -5.0351233401        1.0559662646
 H          0.9499050973       -2.1207632132       -1.4563149957
 H         -1.3212491067       -3.9773176022       -1.0288038435
 H         -1.9950038884       -3.3899992682       -3.3849379152
 H         -0.4085442440       -4.1750745592       -3.3140942546
 H         -0.5179624943       -2.4259327409       -3.5502314647
 C         -1.9840950778        0.1674034144       -0.1406342965
 C         -1.8779982245        0.6287374550        1.1803495476
 C         -2.8039386834        0.8262878487       -1.0462242747
 C         -2.6381655044        1.7343017114        1.5639811067
 C         -3.4649640255        2.3777289538        0.6657344527
 C         -3.5390946175        1.9271235630       -0.6433168944
 H         -2.8713317383        0.4685247423       -2.0615618382
 H         -4.0500627095        3.2287113196        0.9797487164
 H         -4.1746572805        2.4305862210       -1.3558208281
 H         -2.5535599448        2.0912082800        2.5790441615
 C         -0.9696467427        0.0314726893        2.1621716556
 O         -0.1180878108       -0.7958900427        1.9500584687
 H         -1.1175749494        0.4382878077        3.1802937151
