  56
        -94.14812164
 C          2.3946635673        0.6501450951        0.7180613063
 C          3.8674096869        1.0017967372        0.9484479553
 C          2.3150565183       -0.7100579993        0.0232735059
 O          2.3379742907       -0.8013931566       -1.1956785200
 O          0.3492098865        2.4818145331        1.4181519119
 O          0.2429036771        5.2167751310        0.7168827547
 N          1.7584976816        1.6298411437       -0.1273377823
 C          0.7754227656        2.4358497890        0.2730460996
 C          0.2350261843        3.3360024865       -0.8461263154
 C         -0.5302836152        4.5267227090       -0.2274031119
 N          1.3431986263        3.7212658337       -1.7076243383
 N          2.3044381773       -1.7615974752        0.8508782574
 C          2.2840563157       -3.1367178135        0.3825517370
 C          2.8517738476       -4.0518920254        1.4555118009
 C          0.8470429069       -3.5561998787        0.0102680895
 O          0.2324509026       -4.4212303663        0.5933984468
 N          0.3747736126       -2.8769940724       -1.0528898428
 O         -3.0781648970       -1.9179652714       -1.4282666316
 O         -1.2673030331       -0.9204859065       -0.5313556885
 C         -0.9667243590       -3.0609281294       -1.5358947636
 C         -1.9062456794       -1.9167596530       -1.1688710271
 C         -0.9877482014       -3.2463121039       -3.0550826022
 H          1.8514923281        0.6353574137        1.6662030360
 H          4.3954696685        1.0206580845       -0.0022902436
 H          4.3330888158        0.2631757436        1.5952884278
 H          3.9455043923        1.9805411148        1.4149809292
 H          0.3995590678        4.6008497762        1.4475727592
 H          2.0332479957        1.6489387384       -1.1009400415
 H         -0.4698465294        2.7370212697       -1.4369450337
 H         -1.4614996290        4.1559864686        0.2204975014
 H         -0.7787169073        5.2494231614       -1.0103085720
 H          1.9397052991        4.3705665047       -1.2014784210
 H          0.9958229626        4.2113605958       -2.5253670719
 H          2.0230597425       -1.6211795407        1.8097800363
 H          2.8941520908       -3.1721907774       -0.5282331658
 H          2.2025327553       -4.0402432636        2.3274378448
 H          3.8513152780       -3.7333486929        1.7402811749
 H          2.8933704218       -5.0708995629        1.0825076157
 H          0.9342081047       -2.1280571138       -1.4478145645
 H         -1.3606953704       -3.9602760795       -1.0434108605
 H         -0.4338296744       -4.1407740887       -3.3255811752
 H         -0.5292421439       -2.3885427337       -3.5431873191
 H         -2.0141389009       -3.3437447134       -3.3973079890
 C         -1.9886188419        0.1941526659       -0.1447281410
 C         -1.8757180209        0.6578558537        1.1747648875
 C         -2.8079923427        0.8551954682       -1.0491177502
 C         -2.6286219329        1.7684378401        1.5581863453
 C         -3.4550651161        2.4140906004        0.6612611603
 C         -3.5360594578        1.9607655280       -0.6464444675
 H         -2.8805327179        0.4953711211       -2.0633822894
 H         -4.0344385127        3.2689914678        0.9752344752
 H         -4.1715009275        2.4657346846       -1.3579417061
 H         -2.5388399633        2.1271885477        2.5721631247
 C         -0.9677985570        0.0575666272        2.1552326329
 O         -0.1267829001       -0.7807278390        1.9439525503
 H         -1.1061227908        0.4720583345        3.1715591887
