  56
        -94.14811905
 C          2.2533620168        0.7352948035        0.7695470599
 C          3.6885146647        1.1571654109        1.1012260054
 C          2.2889294766       -0.6065407815        0.0375084797
 O          2.3501413824       -0.6621861792       -1.1824563933
 O          0.1714436073        2.5392800845        1.4314692225
 O          0.0064420601        5.2688199711        0.7556800732
 N          1.6169858888        1.7034723714       -0.0886320874
 C          0.6228119448        2.5042548867        0.2962450460
 C          0.1049770626        3.4097477505       -0.8295284546
 C         -0.7140674737        4.5705966122       -0.2234723025
 N          1.2388988270        3.8364923066       -1.6364888947
 N          2.3309555158       -1.6784522316        0.8375645722
 C          2.4083125884       -3.0397791890        0.3347579768
 C          3.0047463806       -3.9461539435        1.3992714148
 C          1.0053986835       -3.5291632288       -0.0788021271
 O          0.4211563083       -4.4320503416        0.4770839003
 N          0.5235425960       -2.8559847981       -1.1420125336
 O         -2.9338191737       -1.9488087600       -1.5829907141
 O         -1.1839177120       -0.9983650963       -0.5272792762
 C         -0.8084548462       -3.0727796681       -1.6376003128
 C         -1.7777432537       -1.9569171340       -1.2606401244
 C         -0.8157275733       -3.2458842198       -3.1578139234
 H          1.6570054739        0.6648531630        1.6826970581
 H          4.2714213460        1.2352718079        0.1862169774
 H          4.1543736434        0.4245235608        1.7546421793
 H          3.6829853822        2.1232999036        1.5994736072
 H          0.1569082809        4.6457663940        1.4818963660
 H          1.9235643144        1.7371217217       -1.0522319441
 H         -0.5590083910        2.8049761309       -1.4601409538
 H         -1.6488504648        4.1674616949        0.1878544742
 H         -0.9560774323        5.2966558829       -1.0053360300
 H          0.9144226335        4.3354584172       -2.4583342922
 H          1.7988412349        4.4886482083       -1.0935665502
 H          2.0164159554       -1.5838274019        1.7919751115
 H          3.0398775582       -3.0146719568       -0.5614025482
 H          3.9750598549       -3.5744521166        1.7185618550
 H          3.1189841096       -4.9505367773        1.0024857788
 H          2.3339529191       -3.9969252392        2.2532942406
 H          1.0545958338       -2.0730802273       -1.5097658163
 H         -1.1802683655       -3.9871044265       -1.1548651678
 H         -0.2440352085       -4.1277520887       -3.4322951884
 H         -0.3699799567       -2.3756922143       -3.6355137736
 H         -1.8380995646       -3.3580241065       -3.5073165976
 C         -1.9334168439        0.0891100597       -0.1185008908
 C         -1.9039717894        0.4721100971        1.2312339518
 C         -2.7038651020        0.7993179413       -1.0282450876
 C         -2.6868818285        1.5545499427        1.6353483922
 C         -3.4623976103        2.2502764634        0.7309230545
 C         -3.4628138788        1.8756598448       -0.6039173185
 H         -2.7141673186        0.5004149655       -2.0646453510
 H         -4.0649864075        3.0828693124        1.0606342956
 H         -4.0587909740        2.4200849941       -1.3205964083
 H         -2.6606623555        1.8526788990        2.6722595407
 C         -1.0528396614       -0.1815142212        2.2266567876
 O         -0.1558668197       -0.9592447753        2.0135017478
 H         -1.2891129476        0.1332900825        3.2613002775
