  56
        -94.14810917
 C          2.2722520120       -1.7722450481       -0.1944037559
 C          3.5185751096       -2.6207368609       -0.4506526404
 C          1.0409249036       -2.5153505147       -0.7219501517
 O          0.7586876274       -2.5066150220       -1.9086641073
 O          2.0685628272        0.8284925120        0.9108127205
 O          2.1096845176        4.2768757493       -1.4044171977
 N          2.3618810444       -0.5092832115       -0.8872587678
 C          2.1730812571        0.6749458783       -0.2978562796
 C          2.1168943240        1.8351876174       -1.2887828133
 C          2.4016067716        3.1711200596       -0.5817725718
 N          2.9799069949        1.5659159971       -2.4297175503
 N          0.3531995796       -3.2105404474        0.1975742112
 C         -0.8865658118       -3.8998484674       -0.1264098019
 C         -1.1015997770       -5.0649796513        0.8253800311
 C         -2.0417830584       -2.8827762930       -0.0326431353
 O         -2.9011182500       -2.9275410365        0.8181414681
 N         -1.9839858681       -1.9529065602       -1.0095365273
 O         -0.8186396901        0.7009409524       -1.1008070237
 O         -2.3156896727        1.0539942674        0.5372629203
 C         -2.7590881740       -0.7357401294       -0.9425997147
 C         -1.8265552374        0.3980513778       -0.5206410416
 C         -3.3745036251       -0.4074807604       -2.3012007252
 H          2.1655119582       -1.5476590099        0.8701531885
 H          3.6023535073       -2.8357447930       -1.5133411388
 H          3.4511719982       -3.5593135574        0.0932621438
 H          4.4071766638       -2.0853925437       -0.1261384409
 H          1.1703231430        4.2549814277       -1.6195228720
 H          2.3398502775       -0.5370232274       -1.8988676582
 H          1.0821079310        1.8500418235       -1.6582247301
 H          3.4665858303        3.2498034439       -0.3465153553
 H          1.8329046776        3.2101881568        0.3551989284
 H          3.9504753890        1.5474710559       -2.1291720302
 H          2.8905895428        2.3231845884       -3.1001060720
 H          0.4777880122       -2.9822004926        1.1726069945
 H         -0.7967238186       -4.2442320760       -1.1625333184
 H         -1.2573323605       -4.6906671112        1.8342002713
 H         -0.2434589845       -5.7320144414        0.8118634742
 H         -1.9892195075       -5.6173984886        0.5315395008
 H         -1.1816125279       -1.9413801203       -1.6299740728
 H         -3.5258425422       -0.8775384032       -0.1753030354
 H         -3.9895550417        0.4859897760       -2.2317953321
 H         -3.9924013017       -1.2375197552       -2.6325195812
 H         -2.5845957279       -0.2387349955       -3.0297841657
 C         -1.5194550059        2.0075130799        1.1581186922
 C         -0.4052984104        1.6288496835        1.9158971429
 C         -1.8950393827        3.3390224439        1.0671361034
 C          0.3133184777        2.6244094614        2.5782742180
 C         -0.0506300744        3.9523759033        2.4762197208
 C         -1.1584717005        4.3100137157        1.7223080873
 H         -2.7635623266        3.5983248502        0.4811469141
 H          0.5249387943        4.7115875181        2.9832648421
 H         -1.4488696038        5.3465644076        1.6415901412
 H          1.1803352577        2.3348085123        3.1513904633
 C          0.0273315131        0.2288129637        2.0505395987
 O         -0.3814586908       -0.7141383452        1.4132690724
 H          0.7503988179        0.0848731871        2.8721611161
