  56
        -94.14804441
 C         -2.3417826311       -0.3206480425       -2.0234562446
 C         -2.0385884565       -1.3033884890       -3.1406744664
 C         -1.1790490848        0.6597732199       -1.7830464406
 O         -0.0396458707        0.4673902592       -2.1601091400
 O         -3.7752523493        0.6031176390        0.2073136570
 O         -4.8487892645        0.0942439677        2.6606063294
 N         -2.5628457777       -1.0297620820       -0.7746058611
 C         -3.2036610945       -0.4877642995        0.2588415851
 C         -3.1933040819       -1.3245929510        1.5339924939
 C         -4.5641705476       -1.2071890474        2.2425061836
 N         -2.7923805391       -2.6890049041        1.2438344809
 N         -1.5728959005        1.7520967606       -1.0951745966
 C         -0.5956188746        2.6409175715       -0.5109494195
 C         -1.2737060803        3.9257591305       -0.0471683732
 C          0.0839475085        1.9426503483        0.6768373988
 O         -0.4090992163        0.9999192414        1.2564947186
 N          1.2596660480        2.5057759916        1.0417177095
 O          4.0845074303        0.4795758692        1.8251561665
 O          2.4057353326        0.3107591872        0.3212009135
 C          2.1224843977        1.8944674105        2.0272059199
 C          3.0195609303        0.8209811009        1.3921681214
 C          2.9564703802        2.9323591970        2.7641640672
 H         -3.2474139045        0.2585874363       -2.2418221170
 H         -1.1514938959       -1.8781574970       -2.8899199323
 H         -1.8516110547       -0.7632781259       -4.0645960638
 H         -2.8755825499       -1.9816234451       -3.2842034964
 H         -4.6840169814        0.6677773787        1.8906408699
 H         -1.9957278522       -1.8582923445       -0.6022486540
 H         -2.4299505460       -0.8680239546        2.1776544330
 H         -4.5687285628       -1.8359838890        3.1397308346
 H         -5.3454699548       -1.5793449642        1.5560704419
 H         -2.5913411540       -3.1910047740        2.1005346126
 H         -3.5402586104       -3.1799852672        0.7639293394
 H         -2.4795077127        1.7070790932       -0.6328348372
 H          0.1608914224        2.8450623508       -1.2783430071
 H         -1.7647379325        4.4097725531       -0.8876254954
 H         -0.5475782496        4.6117533267        0.3811911316
 H         -2.0218175917        3.6922848649        0.7072034875
 H          1.6834964833        3.1883752358        0.4326148404
 H          1.4636832353        1.3607350307        2.7262750383
 H          2.3136015829        3.6069269174        3.3222880404
 H          3.5512978089        3.5101192162        2.0595529285
 H          3.6321971305        2.4298894691        3.4498765069
 C          2.9577599089       -0.6908373738       -0.4560232506
 C          2.0938869424       -1.6950720428       -0.9140316842
 C          4.2900821924       -0.6817082413       -0.8353237191
 C          2.5981306533       -2.6747793182       -1.7684343415
 C          3.9262349463       -2.6692528561       -2.1446287193
 C          4.7695704477       -1.6753944293       -1.6733909794
 H          4.9481056292        0.0938326510       -0.4767092431
 H          4.3073378361       -3.4346812586       -2.8031713493
 H          5.8094365935       -1.6647396322       -1.9631258793
 H          1.9183373243       -3.4373402357       -2.1178966614
 C          0.6878595095       -1.7377574051       -0.4980402517
 O         -0.1130259081       -2.5481324926       -0.9043840099
 H          0.4013097392       -0.9799483864        0.2466071109
