  56
        -94.15261108
 C         -0.4023998376       -2.9579769039       -1.7644673481
 C         -0.7557940738       -3.1492380933       -3.2292464422
 C         -1.6450507248       -2.5836626541       -0.9340821694
 O         -2.6830721472       -2.1813290575       -1.4322081993
 O          1.3205204965       -2.4586021291        0.4276357135
 O          3.9577409992       -1.6655338494        0.7484026028
 N          0.5765789366       -1.8938975662       -1.6275783745
 C          1.3314320049       -1.7070037606       -0.5473042270
 C          2.2859536004       -0.5225015204       -0.6041752387
 C          3.7183978489       -1.0843527312       -0.4981706777
 N          2.1086373524        0.2375466962       -1.8290292283
 N         -1.4589726579       -2.7500337914        0.3834822423
 C         -2.4289320668       -2.2896593675        1.3665498312
 C         -2.1317300990       -2.9168001681        2.7169141428
 C         -2.2945216290       -0.7601714689        1.4105575016
 O         -1.5704745987       -0.1771071640        2.1928065995
 N         -3.0137844767       -0.1268743583        0.4584272675
 O         -0.5323047801        0.7550326151       -0.6128509058
 O         -0.7508678312        2.3472580165        0.9532494293
 C         -2.7327503700        1.2782637192        0.2105931592
 C         -1.2189474644        1.4226175745        0.1191878758
 C         -3.3710643402        1.7328347754       -1.0930359906
 H          0.0354901638       -3.8701795440       -1.3398625972
 H          0.1412959695       -3.3277630481       -3.8162190978
 H         -1.2643617541       -2.2632093194       -3.6013905116
 H         -1.4276799264       -3.9959146544       -3.3382601118
 H          3.1803751372       -2.2099670128        0.9670175655
 H          0.6257594058       -1.1873513577       -2.3477946770
 H          2.1026824222        0.0684010446        0.3101303574
 H          4.4412137621       -0.2698144482       -0.6117945567
 H          3.8791291588       -1.8057606342       -1.3147738575
 H          2.8601105204        0.9120163690       -1.9266927732
 H          1.2358342072        0.7550587654       -1.7613167829
 H         -0.5059575946       -2.8936236819        0.7162082424
 H         -3.4270541003       -2.5605487774        1.0053437699
 H         -2.8974761865       -2.6326708426        3.4333767528
 H         -1.1711913410       -2.5571295583        3.0782008670
 H         -2.1043216732       -3.9999804282        2.6333968346
 H         -3.3434968458       -0.6817402529       -0.3280552454
 H         -3.0834827668        1.8724723888        1.0614949138
 H         -4.4532932874        1.6644893519       -1.0220182173
 H         -3.0240230011        1.1009635955       -1.9077767234
 H         -3.0863640326        2.7600053961       -1.3046777305
 C          0.6230874935        2.5068585986        1.0120810272
 C          1.3273866145        3.1106244587       -0.0389065162
 C          1.2862497177        2.0295560488        2.1321260022
 C          2.7159586250        3.2242112933        0.0756922954
 C          3.3764450012        2.7570641852        1.1935924972
 C          2.6610649621        2.1605031687        2.2234209879
 H          0.7074123040        1.5408595351        2.9004273951
 H          4.4495252855        2.8461468878        1.2641070640
 H          3.1784818878        1.7788959373        3.0897245294
 H          3.2677221678        3.6872574572       -0.7303418955
 C          0.6541871473        3.6104449761       -1.2438315584
 O         -0.5340678354        3.6608423378       -1.4351459534
 H          1.3671966405        3.9617863403       -2.0178254195
