  56
        -94.14802536
 C         -0.9344748101        1.2907194757        2.0270239593
 C         -1.3186088106        2.2776161005        3.1285636099
 C         -1.3516118752        1.8441182992        0.6615133801
 O         -2.3891468254        1.4802431844        0.1185006679
 O          0.2411341084       -1.2773655915        2.1917358720
 O         -2.7243239255       -1.3849020911       -0.3393764109
 N         -1.6082709381        0.0232847009        2.2009191013
 C         -0.9581197969       -1.1533630191        2.0496143196
 C         -1.8418378100       -2.3798670250        1.7464085209
 C         -3.0474901240       -2.0810655743        0.8352315447
 N         -1.0412919912       -3.4369915618        1.1462037151
 N         -0.5512679647        2.7897246449        0.1523732258
 C         -0.7650511303        3.3337361071       -1.1855160949
 C         -0.0740790800        4.6791726209       -1.3182947787
 C         -0.1683613702        2.2893657624       -2.1398408651
 O          0.9904949144        2.3240749106       -2.4989744764
 N         -1.0152805709        1.2814527529       -2.4737633268
 O         -0.0934372298       -0.1490606952       -0.4678369938
 O          1.3480920435       -1.2498682861       -1.7833864386
 C         -0.4115715861        0.0084555903       -2.8319519609
 C          0.2838288468       -0.4787792778       -1.5636661261
 C         -1.4568982967       -0.9950165390       -3.2986306003
 H          0.1405431688        1.0924657487        2.0387343876
 H         -0.7847722607        3.2142817529        2.9957669013
 H         -1.0635701700        1.8599134989        4.0988016855
 H         -2.3886464303        2.4748012280        3.1008099587
 H         -2.5044268732       -0.4603830219       -0.1276442009
 H         -2.5958948033        0.0629915824        1.9907190744
 H         -2.2216440289       -2.7569767190        2.7072823146
 H         -3.8322627149       -1.5586406829        1.4012394493
 H         -3.4508499058       -3.0434865901        0.5078316850
 H         -0.1385180296       -3.4582580554        1.6165378077
 H         -0.8591766875       -3.1830975893        0.1783420028
 H          0.3859389769        2.8780436519        0.5273916476
 H         -1.8459792497        3.4141800313       -1.3366375574
 H          1.0031914472        4.5401568037       -1.2649102109
 H         -0.3934408876        5.3500183037       -0.5252178172
 H         -0.3149543050        5.1235890676       -2.2799449721
 H         -1.8761391330        1.2114918277       -1.9400613055
 H          0.3428922797        0.1879658003       -3.6043887917
 H         -2.0181101883       -0.5758736068       -4.1293874472
 H         -2.1398075190       -1.2318486941       -2.4851495717
 H         -0.9685817052       -1.9084241708       -3.6273225583
 C          2.0777501375       -1.6305584443       -0.6525806081
 C          2.5271926065       -0.6705392476        0.2602696544
 C          2.2902653919       -2.9780379922       -0.4266607301
 C          3.1677043881       -1.0985576357        1.4195667380
 C          3.3932926607       -2.4428364306        1.6411057516
 C          2.9647919586       -3.3796399244        0.7148590145
 H          1.9142156645       -3.6986587413       -1.1363986417
 H          3.8887631622       -2.7638891048        2.5441818299
 H          3.1295760991       -4.4320094104        0.8896705906
 H          3.4809024945       -0.3538358327        2.1346348071
 C          2.2994777891        0.7614826577        0.0138218899
 O          2.1120066710        1.5947376100        0.8670832914
 H          2.3203517390        1.0515370761       -1.0544570080
