  56
        -94.14802219
 C          0.0661913363       -3.3368379488       -0.4067857513
 C          0.2612523372       -4.7887539652       -0.8105227217
 C         -1.3993757996       -2.9054155736       -0.6457105406
 O         -1.9924313850       -3.2231607966       -1.6551941013
 O          0.7657775599       -0.7063458617        0.1589917357
 O          3.3026205691        1.6690828908       -1.8005556380
 N          0.9218758530       -2.4812506446       -1.2129354311
 C          1.1810570184       -1.2179287836       -0.8769683794
 C          2.0199070119       -0.4274387532       -1.8734886993
 C          3.0190979723        0.4819023479       -1.1169954309
 N          2.6092793823       -1.3111103797       -2.8660066171
 N         -1.9271432080       -2.1532970339        0.3354948731
 C         -3.2291854249       -1.5331578130        0.2196110486
 C         -3.9157001510       -1.4907698410        1.5809558346
 C         -3.1709507864       -0.1048804898       -0.3485862129
 O         -4.1757312368        0.5211943380       -0.6088743981
 N         -1.9282402877        0.3716129052       -0.5413755951
 O          0.5936125936        2.5149154328       -1.1687237538
 O         -0.3339875091        2.0309353701        0.8289898082
 C         -1.6832439036        1.7043781904       -1.0523622719
 C         -0.3407767002        2.1511265537       -0.5006376136
 C         -1.7017632075        1.7325424269       -2.5790822619
 H          0.3352184247       -3.1711407822        0.6424282994
 H          1.3150482573       -5.0555896027       -0.7890469417
 H         -0.1334385403       -4.9370095519       -1.8131388198
 H         -0.2822556519       -5.4378486903       -0.1294643493
 H          2.5043486463        2.2182287934       -1.7823376624
 H          1.1877096295       -2.7810467050       -2.1418341045
 H          1.3146718184        0.2334282415       -2.3962368112
 H          3.9728488463       -0.0434819466       -1.0006139558
 H          2.6149847374        0.6900651427       -0.1174105868
 H          3.3874808815       -1.8204612269       -2.4561482559
 H          2.9852553266       -0.7588611491       -3.6292120192
 H         -1.3568301149       -1.8265828523        1.1056732865
 H         -3.8125983523       -2.1320224864       -0.4893098040
 H         -3.2928298042       -0.9431646160        2.2846272191
 H         -4.0821862567       -2.4974204250        1.9562190506
 H         -4.8703542183       -0.9818310681        1.4846224758
 H         -1.1300126925       -0.1426063273       -0.1928060029
 H         -2.4739988061        2.3618062189       -0.6635966662
 H         -2.6926832473        1.4549014384       -2.9255873755
 H         -0.9782549018        1.0259567247       -2.9787216734
 H         -1.4575557642        2.7279198211       -2.9391880133
 C          0.8335027143        2.1758333059        1.5457478151
 C          1.1546111535        1.1820059361        2.4846460767
 C          1.6786449251        3.2585841555        1.3505198989
 C          2.3462195022        1.3074263525        3.1998636918
 C          3.1858203970        2.3861195774        3.0061654160
 C          2.8495940959        3.3620442417        2.0813041477
 H          1.4205034145        4.0136314828        0.6251210846
 H          4.1031236323        2.4660155418        3.5688018556
 H          3.5025954992        4.2058123328        1.9204458659
 H          2.6044463952        0.5422758368        3.9176244936
 C          0.3140707688        0.0009462024        2.7100057075
 O         -0.8289670885       -0.1663201292        2.3716339854
 H          0.8506618778       -0.7863942653        3.2788246261
