  56
        -94.14802074
 C          0.0420162195       -3.3415806724       -0.4170476518
 C          0.2269081149       -4.7924064357       -0.8293600080
 C         -1.4203842832       -2.8984055222       -0.6537722296
 O         -2.0169575259       -3.2092545073       -1.6632986718
 O          0.7630822594       -0.7198791230        0.1654034014
 O          3.3217016996        1.6447552877       -1.7829938292
 N          0.9041095861       -2.4873792837       -1.2178388615
 C          1.1740297766       -1.2284864175       -0.8737195535
 C          2.0193909090       -0.4390651040       -1.8656001459
 C          3.0252718451        0.4582245798       -1.1037717976
 N          2.6022315289       -1.3218060007       -2.8627867893
 N         -1.9411170932       -2.1438885562        0.3294061254
 C         -3.2380813782       -1.5127770875        0.2154113959
 C         -3.9216436831       -1.4631529424        1.5779834777
 C         -3.1687721141       -0.0857471039       -0.3545551193
 O         -4.1685174979        0.5468237053       -0.6184107337
 N         -1.9222819689        0.3821476320       -0.5444089378
 O          0.6144835420        2.5102131746       -1.1675873714
 O         -0.3216399645        2.0328697619        0.8276869260
 C         -1.6671864463        1.7123143248       -1.0572089881
 C         -0.3239287962        2.1521778314       -0.5019760273
 C         -1.6806638715        1.7375211070       -2.5840376808
 H          0.3117809627       -3.1839805889        0.6332217474
 H          1.2787340845       -5.0669222175       -0.8087289820
 H         -0.1681136200       -4.9318948410       -1.8331103004
 H         -0.3217677418       -5.4416434934       -0.1526048741
 H          2.5278031653        2.2002954954       -1.7674877136
 H          1.1675782068       -2.7834739701       -2.1486038703
 H          1.3196592566        0.2301631531       -2.3851065371
 H          3.9737407499       -0.0764624117       -0.9866622779
 H          2.6206183409        0.6670428748       -0.1045096408
 H          3.3757383475       -1.8401002425       -2.4552614955
 H          2.9836046436       -0.7681410930       -3.6222816208
 H         -1.3672668430       -1.8232567006        1.0994596795
 H         -3.8279273230       -2.1073297227       -0.4917968337
 H         -3.2929329232       -0.9199643200        2.2798607097
 H         -4.0957472707       -2.4679943014        1.9546467403
 H         -4.8722759814       -0.9465022177        1.4828928434
 H         -1.1287551915       -0.1366829137       -0.1920676119
 H         -2.4551793045        2.3754197356       -0.6724440224
 H         -1.4308139308        2.7310659626       -2.9453408931
 H         -2.6717866811        1.4637492003       -2.9330363548
 H         -0.9592377054        1.0268164546       -2.9801364734
 C          0.8441928258        2.1729747069        1.5481450980
 C          1.1567843469        1.1790362469        2.4897893523
 C          1.6953996634        3.2512107831        1.3543241134
 C          2.3463467549        1.2996708097        3.2092230982
 C          3.1920471375        2.3738464922        3.0169011850
 C          2.8641337112        3.3499815540        2.0892856905
 H          1.4435974232        4.0064679677        0.6269118057
 H          4.1075990194        2.4501339089        3.5828790042
 H          3.5218904110        4.1902823998        1.9296222406
 H          2.5979576382        0.5345125469        3.9293088426
 C          0.3089523926        0.0029912968        2.7143868428
 O         -0.8331888544       -0.1591097723        2.3706339912
 H          0.8384542965       -0.7854794513        3.2881739056
