  56
        -94.14801446
 C          2.2530323301       -1.4617995314       -0.3977196004
 C          3.5603938296       -2.2222796664       -0.6447111368
 C          1.0841936860       -2.3443496115       -0.8300705479
 O          0.6792802426       -2.3494559315       -1.9799963511
 O          2.3021173549        1.1409951952        0.6212237220
 O          0.7019432902        3.5991504369       -2.8259072337
 N          2.2293991847       -0.2363707622       -1.1656523184
 C          2.2041058657        0.9718916441       -0.5846871961
 C          2.1608933602        2.1663763387       -1.5424670980
 C          0.7173224504        2.5045762777       -1.9516131732
 N          2.7148696749        3.3690681309       -0.9316200118
 N          0.6174906872       -3.1616236402        0.1288646044
 C         -0.5219164134       -4.0433838879       -0.0862671745
 C         -0.4165322787       -5.2687101846        0.8056983994
 C         -1.7813169947       -3.2170190113        0.2308575446
 O         -2.4673954733       -3.3917960285        1.2115081111
 N         -2.0063820860       -2.2570630543       -0.6960027736
 O         -0.7582776074        0.2039267048       -0.7595623916
 O         -2.2052728259        0.8942822508        0.8205222192
 C         -2.7657906604       -1.0744266488       -0.3641138119
 C         -1.7690979472        0.0570513694       -0.1277759690
 C         -3.7097548405       -0.6796793135       -1.4992770415
 H          2.1658901735       -1.1880623525        0.6564199807
 H          3.6399581992       -2.4877639918       -1.6963929457
 H          3.5831817743       -3.1315141335       -0.0499214773
 H          4.4080599799       -1.5986396073       -0.3722457272
 H          1.3280052797        4.2423780458       -2.4631627255
 H          1.9498143183       -0.3439022360       -2.1307611360
 H          2.7376656566        1.9385353665       -2.4453616510
 H          0.1397423047        2.7276558411       -1.0429835325
 H          0.2478021416        1.6652072792       -2.4650035238
 H          3.7159482145        3.2659960110       -0.8009112425
 H          2.3075341152        3.4664714514       -0.0034308665
 H          0.8216291521       -2.9445878216        1.0933931667
 H         -0.5173170975       -4.3177148660       -1.1463156685
 H          0.5305554287       -5.7774437732        0.6455760084
 H         -1.2313195819       -5.9517929834        0.5843738459
 H         -0.4996288907       -4.9713570363        1.8482113831
 H         -1.3162386742       -2.1298331357       -1.4295936263
 H         -3.3191564251       -1.2781070809        0.5571104384
 H         -3.1376709842       -0.4639851652       -2.3990496136
 H         -4.2825148043        0.2012498251       -1.2223046436
 H         -4.3943815204       -1.4983438715       -1.7033946180
 C         -1.3828656215        1.9345437194        1.2270689199
 C         -0.1812870310        1.6975828614        1.9070227885
 C         -1.8164542721        3.2303547562        0.9872398010
 C          0.5659424996        2.7997772848        2.3286568559
 C          0.1444700676        4.0886575898        2.0727732436
 C         -1.0524770138        4.3048324449        1.4055296851
 H         -2.7479212389        3.3791000367        0.4634065555
 H          0.7430235799        4.9279745662        2.3929551428
 H         -1.3884309042        5.3102027764        1.2030065012
 H          1.4989964603        2.6199744412        2.8402511754
 C          0.3401491947        0.3539624985        2.1877410150
 O         -0.1050727269       -0.6973404282        1.7910886125
 H          1.2244737152        0.3749396343        2.8493097362
