  56
        -94.14800742
 C         -2.1631529327       -0.0082520615        0.5055314923
 C         -3.6511900719        0.1477000219        0.8426694670
 C         -1.5263994681        1.3762508293        0.4039859224
 O         -1.4171109792        1.9447923623       -0.6733951770
 O         -1.5616580625       -2.7382624963        0.0167727170
 O         -2.6263465770       -4.4982591204       -1.8892198856
 N         -1.9807249489       -0.6627269937       -0.7668678562
 C         -1.6837178435       -1.9574836940       -0.9116533658
 C         -1.5224817944       -2.3745424508       -2.3797824644
 C         -1.4957908225       -3.9154336776       -2.4779844537
 N         -2.5840614051       -1.7443963990       -3.1518638048
 N         -1.1544785069        1.9230462047        1.5676049323
 C         -0.5545556187        3.2480198364        1.6695791536
 C         -0.6501261746        3.7425801757        3.1021247204
 C          0.9181471493        3.1636831264        1.2102013946
 O          1.8525556924        3.1448363871        1.9821254380
 N          1.0426071124        3.1135617635       -0.1308525772
 O          3.3035607285        0.7967559482       -1.6673380628
 O          1.7031281805        0.6391963867       -0.0746239433
 C          2.3042219214        2.8076713377       -0.7616937148
 C          2.5110088977        1.2962355651       -0.9194743995
 C          2.4294330083        3.5022202626       -2.1121852526
 H         -1.6728245931       -0.6199362039        1.2690859426
 H         -4.1178343573       -0.8329164300        0.8826709765
 H         -4.1451877177        0.7438586561        0.0785796669
 H         -3.7716439191        0.6344530232        1.8066859734
 H         -2.5770752796       -4.2954906753       -0.9429477244
 H         -2.1028925596       -0.0924587165       -1.5939589186
 H         -0.5608958467       -1.9816669617       -2.7331477719
 H         -0.5741550401       -4.2843973431       -2.0089417371
 H         -1.5035642037       -4.2175722216       -3.5295138505
 H         -3.4683529432       -2.1824795301       -2.9069664564
 H         -2.4374945845       -1.9067107582       -4.1429368763
 H         -1.1703950030        1.3701259207        2.4127209912
 H         -1.0961340069        3.9089252630        0.9824348514
 H         -0.0537778591        3.1048572054        3.7504190613
 H         -1.6834893215        3.7399464250        3.4394874796
 H         -0.2570950391        4.7529972883        3.1684504108
 H          0.1994072989        2.9488356699       -0.6766706230
 H          3.0941666106        3.1504060668       -0.0781230780
 H          2.4394296333        4.5801526756       -1.9803087688
 H          1.5900301345        3.2320074907       -2.7491385352
 H          3.3500578689        3.1896223060       -2.5962577687
 C          1.6632906828       -0.7377774137        0.0588973739
 C          1.1952163395       -1.2059665178        1.2973451167
 C          1.9531174769       -1.6292031935       -0.9593708414
 C          1.0006349515       -2.5724932196        1.4793219434
 C          1.3140605086       -3.4631221091        0.4712112089
 C          1.7937177402       -2.9893801025       -0.7380182378
 H          2.3078949618       -1.2694234416       -1.9112367299
 H          1.1718045971       -4.5212233274        0.6231474625
 H          2.0382026456       -3.6794109433       -1.5318504085
 H          0.6133031625       -2.9136528643        2.4266899659
 C          0.9136048505       -0.2577923962        2.3810634284
 O          0.0853326305       -0.4223204381        3.2458339124
 H          1.5234046593        0.6619273804        2.3479785897
