  56
        -94.14800259
 C         -2.3733699972       -0.0311559832       -2.0300383780
 C         -2.1214955867       -1.0330744456       -3.1436554918
 C         -1.1248652899        0.8148894422       -1.7270680098
 O          0.0072735392        0.4927354962       -2.0332642801
 O         -3.7486864205        1.0495442678        0.1606807894
 O         -1.8226546184       -0.7039978074        2.8215505143
 N         -2.7551072724       -0.7265475080       -0.8110256567
 C         -3.4134517091       -0.1300591901        0.1885018723
 C         -3.7813890671       -1.0301163039        1.3626613633
 C         -3.1909275332       -0.4515491124        2.6738328578
 N         -5.2337124240       -1.1177727501        1.3725892286
 N         -1.4351593944        1.9588670689       -1.0826929637
 C         -0.3864948816        2.7687617785       -0.5064132365
 C         -0.9684896036        4.0749637734        0.0229139884
 C          0.2777988673        1.9913640555        0.6357273194
 O         -0.3116316838        1.1320104060        1.2607554733
 N          1.5385184995        2.3728477973        0.9201309796
 O          4.2254384972        0.1728213720        1.5233416512
 O          2.3221230860       -0.0550108888        0.3206443187
 C          2.3551735112        1.6770192733        1.8919101825
 C          3.1141888967        0.5150538422        1.2309283746
 C          3.3140100605        2.6253223513        2.5953711611
 H         -3.1946406499        0.6476522902       -2.2908982835
 H         -3.0112187190       -1.6324755366       -3.3173034953
 H         -1.2964824944       -1.6857778824       -2.8712883816
 H         -1.8576464137       -0.5087710469       -4.0579752925
 H         -1.3232433990       -0.1096927792        2.2423841347
 H         -2.3402468838       -1.6432476412       -0.6795837026
 H         -3.3760540455       -2.0371268407        1.2158976227
 H         -3.6813380650       -0.9455670389        3.5208634287
 H         -3.4137516564        0.6237793121        2.7182414956
 H         -5.6234793214       -0.1799704098        1.3628653116
 H         -5.5525104021       -1.5831722633        2.2160764367
 H         -2.3563282900        1.9996544430       -0.6419079311
 H          0.3576840830        2.9558563877       -1.2902115312
 H         -1.7089381240        3.8606487831        0.7902636141
 H         -1.4512235104        4.6187303894       -0.7849667350
 H         -0.1874789359        4.6974336992        0.4521872714
 H          2.0169488424        2.9995750997        0.2915846321
 H          1.6597687072        1.2212386967        2.6102179356
 H          3.9614697638        3.1155714670        1.8714149336
 H          3.9386869054        2.0625549728        3.2823958745
 H          2.7619097961        3.3798842313        3.1483759834
 C          2.7022593975       -1.1149804013       -0.4782995965
 C          1.6933797462       -2.0173051973       -0.8477616714
 C          3.9903829055       -1.2681828248       -0.9653314248
 C          2.0087147114       -3.0625677821       -1.7151630187
 C          3.2934061868       -3.2197239481       -2.1943240230
 C          4.2800954721       -2.3230202056       -1.8159661276
 H          4.7634377513       -0.5724019819       -0.6817491031
 H          3.5286949706       -4.0343633747       -2.8618793618
 H          5.2867241815       -2.4366444256       -2.1890269777
 H          1.2184888329       -3.7439996957       -1.9928923439
 C          0.3270791611       -1.8748644657       -0.3410815166
 O         -0.5990745969       -2.5762801690       -0.6820069644
 H          0.1879410612       -1.0732980065        0.3994243900
