  56
        -94.15260546
 C         -0.2867897245       -3.0366156099       -1.6558340361
 C         -0.6195940641       -3.3246432190       -3.1096028077
 C         -1.5507546355       -2.6662325746       -0.8565447353
 O         -2.5967811882       -2.3266675731       -1.3840062637
 O          1.3926856701       -2.3454046477        0.5173808951
 O          4.0020405817       -1.4427130067        0.7966109359
 N          0.6485942542       -1.9288547440       -1.5729732313
 C          1.3845038870       -1.6512088175       -0.4991374619
 C          2.2950908203       -0.4371535569       -0.6184636800
 C          3.7465679670       -0.9396611367       -0.4805318869
 N          2.0927625851        0.2491739192       -1.8823173472
 N         -1.3742474079       -2.7608653229        0.4693151576
 C         -2.3762689619       -2.2989314361        1.4189841188
 C         -2.0768292434       -2.8596332963        2.7978489065
 C         -2.3019776335       -0.7648174413        1.4041105722
 O         -1.6233251017       -0.1239165379        2.1816969929
 N         -3.0174807501       -0.1986245506        0.4078052448
 O         -0.5451879481        0.7141173758       -0.6504269393
 O         -0.8434088785        2.3525831580        0.8536840495
 C         -2.7772928652        1.2033778074        0.1033283483
 C         -1.2662601267        1.3892744126        0.0404083979
 C         -3.3992979091        1.5784671555       -1.2327988592
 H          0.1827379122       -3.9053485779       -1.1772565770
 H          0.2889139768       -3.5002501378       -3.6796358834
 H         -1.1596472002       -2.4823388120       -3.5350718660
 H         -1.2564084955       -4.2024176436       -3.1743607989
 H          3.2434337191       -2.0010445658        1.0439430559
 H          0.6787180380       -1.2629158388       -2.3319916225
 H          2.0879566342        0.1943091776        0.2627138382
 H          4.4398471747       -0.1068125161       -0.6372478966
 H          3.9364674942       -1.6983592746       -1.2560221308
 H          2.8204285081        0.9430152371       -2.0173659409
 H          1.2024739496        0.7389599830       -1.8415444650
 H         -0.4203913194       -2.8483685260        0.8184525419
 H         -3.3572518037       -2.6228779147        1.0545073268
 H         -1.1358140755       -2.4500414483        3.1573718656
 H         -2.0084421120       -3.9435176159        2.7592766575
 H         -2.8632349997       -2.5752997366        3.4914719630
 H         -3.3100816948       -0.7986601939       -0.3600970481
 H         -3.1664381706        1.8222389686        0.9191790451
 H         -3.0096377944        0.9264699114       -2.0116186827
 H         -3.1471622704        2.6059011667       -1.4814146447
 H         -4.4797794192        1.4728605269       -1.1841037917
 C          0.5253705170        2.5338496156        0.9593188426
 C          1.2628329685        3.1161397701       -0.0808107429
 C          1.1492930307        2.0976803545        2.1180327674
 C          2.6442149261        3.2527613141        0.0855300968
 C          3.2655559268        2.8272863841        1.2418372152
 C          2.5175599145        2.2499409695        2.2594181355
 H          0.5459880125        1.6221841001        2.8757389499
 H          4.3337841914        2.9325098326        1.3517826436
 H          3.0050962779        1.8998348266        3.1557931190
 H          3.2220455157        3.6994521543       -0.7114017076
 C          0.6319068491        3.5662542245       -1.3271764824
 O         -0.5478170996        3.5847870402       -1.5705211786
 H          1.3703273419        3.9097305663       -2.0808792754
