  56
        -94.14799740
 C         -2.3762760212       -0.0244293357       -2.0209294582
 C         -2.1341174924       -1.0318460834       -3.1317334135
 C         -1.1195398882        0.8098962917       -1.7201218593
 O          0.0097764213        0.4746736888       -2.0231650057
 O         -3.7445796467        1.0772431301        0.1623379981
 O         -1.8098541967       -0.7202697480        2.7943017685
 N         -2.7667969725       -0.7123725275       -0.8005414702
 C         -3.4224888324       -0.1058571519        0.1949082054
 C         -3.8027838865       -0.9976552131        1.3711483892
 C         -3.1758338611       -0.4414354443        2.6755729109
 N         -5.2566941816       -1.0398414788        1.4029060528
 N         -1.4184227017        1.9601401574       -1.0817841361
 C         -0.3615369466        2.7650417605       -0.5135849586
 C         -0.9295195238        4.0826777585        0.0022729028
 C          0.2956807206        1.9924784764        0.6359023354
 O         -0.3018642324        1.1453413778        1.2697604144
 N          1.5608242928        2.3632947646        0.9147774098
 O          4.2447221376        0.1648673934        1.5008675089
 O          2.3219065262       -0.0793111333        0.3317815735
 C          2.3739226539        1.6645421993        1.8877708861
 C          3.1270260248        0.4997355049        1.2246979166
 C          3.3375518040        2.6088812040        2.5898010919
 H         -3.1904750851        0.6619180132       -2.2842480871
 H         -3.0274935458       -1.6277193443       -3.2986724186
 H         -1.3108904110       -1.6872061162       -2.8604216797
 H         -1.8723308322       -0.5124188607       -4.0494354198
 H         -1.3096701523       -0.1165087293        2.2256658939
 H         -2.3585582919       -1.6312771933       -0.6637270387
 H         -3.4306599901       -2.0162854137        1.2160732817
 H         -3.6596861886       -0.9342180417        3.5272212660
 H         -3.3779847278        0.6372419215        2.7337802976
 H         -5.6167458836       -0.0901778622        1.3893885385
 H         -5.5777857865       -1.4870680743        2.2553233499
 H         -2.3392957916        2.0137076576       -0.6420021152
 H          0.3841422701        2.9363051487       -1.2996344448
 H         -1.4065865051        4.6231340791       -0.8111838001
 H         -0.1417335730        4.7011910673        0.4248597821
 H         -1.6719296851        3.8842513260        0.7719943749
 H          2.0440116690        2.9800315952        0.2799543657
 H          1.6759378112        1.2131121052        2.6061426440
 H          3.9888898102        3.0932539360        1.8653789500
 H          3.9580209608        2.0445055301        3.2792976612
 H          2.7889694441        3.3681188058        3.1399023150
 C          2.6914799425       -1.1363154126       -0.4757811216
 C          1.6737287234       -2.0285852806       -0.8458256845
 C          3.9755529254       -1.2958168492       -0.9715725372
 C          1.9760391047       -3.0697045658       -1.7226874864
 C          3.2564889499       -3.2326981441       -2.2111691329
 C          4.2520829408       -2.3463181224       -1.8319298766
 H          4.7557962444       -0.6082482184       -0.6877205871
 H          3.4814795082       -4.0436704588       -2.8866946107
 H          5.2555551797       -2.4644070115       -2.2120747650
 H          1.1790089841       -3.7430506373       -2.0007004904
 C          0.3111274561       -1.8797881352       -0.3309465210
 O         -0.6214881377       -2.5729006642       -0.6709750405
 H          0.1815052394       -1.0821362686        0.4154744042
