  56
        -94.14799703
 C          2.5878857575       -1.0630637950       -0.1775871846
 C          4.0021033620       -1.5114839223       -0.5498267748
 C          1.5827901720       -2.0908122127       -0.7041565428
 O          1.2644284750       -2.1164549464       -1.8820639906
 O          1.8186745195        1.3022477330        1.1452674716
 O          2.4530649562        4.6163322957       -1.6256009731
 N          2.2841958882        0.2144574629       -0.7770980909
 C          1.8493665353        1.2659918765       -0.0769032028
 C          1.4723488298        2.4742543582       -0.9226417502
 C          2.6903522455        3.4223415287       -0.9269992941
 N          1.1496744518        2.0718060243       -2.2845893601
 N          1.1450076563       -2.9794867023        0.2008727376
 C          0.1458086759       -3.9873682708       -0.1216345802
 C          0.2836048594       -5.1767398074        0.8140310718
 C         -1.2475284049       -3.3384158635        0.0007483390
 O         -2.0368934483       -3.6140882704        0.8752360803
 N         -1.4789040060       -2.4416994215       -0.9820028986
 O         -1.0286793178        0.3862696940       -1.1136155155
 O         -2.5826003101        0.4339714005        0.5075109902
 C         -2.5494701699       -1.4770353963       -0.8842286640
 C         -1.9362645921       -0.1290561439       -0.5146013933
 C         -3.2930287524       -1.3487104366       -2.2126466427
 H          2.4915319388       -0.9384070335        0.9045569144
 H          4.0740942384       -1.6385108333       -1.6274790596
 H          4.2336817835       -2.4581015485       -0.0686135633
 H          4.7244774166       -0.7646589836       -0.2306909022
 H          2.3552566204        4.4025760037       -2.5603226600
 H          2.1741815120        0.2376363382       -1.7833877812
 H          0.6429254513        2.9880823264       -0.4070334441
 H          3.5506317287        2.8881956825       -1.3513779358
 H          2.9187266343        3.7093879308        0.1008936620
 H          0.8116111220        2.8764433932       -2.8046268585
 H          0.3821490093        1.4065086769       -2.2505255026
 H          1.2427190166       -2.7642543597        1.1817296643
 H          0.3137434676       -4.2793899587       -1.1641406012
 H         -0.4091176506       -5.9581727306        0.5157936835
 H          0.0340941349       -4.8756629322        1.8285436202
 H          1.2974507191       -5.5679135395        0.7877926000
 H         -0.7186726604       -2.2041769986       -1.6119406133
 H         -3.2164980212       -1.8041769078       -0.0813553899
 H         -2.6104204411       -0.9990889083       -2.9841546215
 H         -4.1146534160       -0.6433265369       -2.1190437657
 H         -3.6897653476       -2.3175610647       -2.5031384868
 C         -2.0443873430        1.5802931246        1.0832985522
 C         -0.8963294445        1.5023965301        1.8793494330
 C         -2.7088201179        2.7839689483        0.9101938497
 C         -0.4384418064        2.6668253201        2.4961724937
 C         -1.0869281532        3.8709919657        2.3080974006
 C         -2.2254142378        3.9293198876        1.5181807681
 H         -3.5962857437        2.8094413340        0.2965148063
 H         -0.7094514396        4.7666793620        2.7768781042
 H         -2.7373971088        4.8682087888        1.3712156614
 H          0.4568375351        2.6103453052        3.0949600674
 C         -0.1600331157        0.2444569109        2.0872720292
 O         -0.2755171642       -0.7676694941        1.4351849571
 H          0.5079551148        0.2792014244        2.9645869795
