  56
        -94.14799577
 C         -2.4766588762        1.0575468341       -2.1329229655
 C         -1.8643096678        1.1519589502       -3.5200464906
 C         -1.9843820496        2.1913299514       -1.2232212269
 O         -1.0592305464        2.9304945435       -1.5167086950
 O         -3.9704774553       -0.3720937185       -0.2489929434
 O         -1.0118569819       -2.6560834204        2.0807996844
 N         -2.0956749645       -0.1968800347       -1.4978803764
 C         -2.8585696059       -0.7784568503       -0.5566993840
 C         -2.2560158793       -2.0134276335        0.1067351263
 C         -1.7097928956       -1.5960437313        1.4857819496
 N         -3.2310227908       -3.0714086808        0.3300684658
 N         -2.6373118612        2.2432444800       -0.0524930342
 C         -2.1797102209        3.0549133737        1.0650605153
 C         -3.2922916660        3.2060885988        2.0867986472
 C         -0.9519527110        2.3480050867        1.6749201776
 O         -0.9961703887        1.6896731196        2.6912459985
 N          0.1711922342        2.5336141152        0.9474106393
 O          0.5523662800        0.1264316527       -0.2954845530
 O          2.5394107686       -0.1802189194        0.7072497513
 C          1.3821057969        1.8067841812        1.2398417572
 C          1.4169181836        0.4973904009        0.4562329686
 C          2.6115166293        2.6609741393        0.9387509408
 H         -3.5713234364        1.0735487472       -2.1770693098
 H         -2.1870753918        2.0705263494       -4.0014830462
 H         -2.1671465195        0.3032173871       -4.1271922276
 H         -0.7801436841        1.1722618638       -3.4406179634
 H         -1.6015240268       -3.4216665148        2.0572464667
 H         -1.1110816502       -0.4224439805       -1.5326205761
 H         -1.4327698084       -2.4121871401       -0.4947095411
 H         -2.5482769113       -1.2744084492        2.1176726893
 H         -1.0134642217       -0.7620944855        1.3895009568
 H         -3.5224121763       -3.4768627498       -0.5534066489
 H         -4.0585211983       -2.6582414812        0.7549406168
 H         -3.3474348805        1.5469858614        0.1456513556
 H         -1.8682238107        4.0270240689        0.6656068764
 H         -4.1842041223        3.6143701051        1.6189779755
 H         -2.9719236154        3.8692148917        2.8852405949
 H         -3.5216287748        2.2363088289        2.5218798796
 H          0.0761298299        2.9314456709        0.0154020195
 H          1.3489710706        1.5408657430        2.3050086016
 H          3.5165858246        2.1246706468        1.2086655818
 H          2.5626237762        3.5819424720        1.5132979151
 H          2.6437038424        2.9116959209       -0.1196418381
 C          2.7092114231       -1.4448222590        0.1436295877
 C          3.7921667875       -1.6620495622       -0.7174473310
 C          1.8430514856       -2.4762584327        0.4652797679
 C          3.9818752594       -2.9400992854       -1.2456366111
 C          3.1171065266       -3.9691372929       -0.9322393839
 C          2.0510990888       -3.7347146712       -0.0769709591
 H          1.0187967780       -2.3075702220        1.1417061783
 H          3.2722888309       -4.9526353379       -1.3486661574
 H          1.3726537803       -4.5336037211        0.1801646005
 H          4.8230876816       -3.0908600026       -1.9055705932
 C          4.7203020540       -0.5809242123       -1.0764912988
 O          5.6533563282       -0.6977914426       -1.8283086284
 H          4.4946059790        0.3868453801       -0.5915605979
