  56
        -94.14799426
 C          1.9120820471       -2.1051202600        0.2970396670
 C          2.9004837903       -3.1779673614        0.7273355218
 C          0.6748103956       -2.7621885586       -0.3470216263
 O          0.7417210607       -3.3158668521       -1.4251146142
 O          0.6261282007       -0.0962391754       -1.1244399383
 O          0.8871082632        2.2115697747       -2.5173055525
 N          2.5225153422       -1.2360098473       -0.6921092066
 C          1.8073873571       -0.3360329201       -1.3621779859
 C          2.5737709396        0.4298860831       -2.4395830037
 C          2.2389093296        1.9360511036       -2.3139932530
 N          3.9968966059        0.1411771416       -2.3584025734
 N         -0.4395033027       -2.6771137091        0.3958085508
 C         -1.7251644123       -3.1561013141       -0.0648059584
 C         -2.2782549624       -4.2268851055        0.8703598805
 C         -2.7188710853       -1.9891701968       -0.1775555305
 O         -3.8908950581       -2.0921133136        0.1086225793
 N         -2.1643882120       -0.8488523830       -0.6458817495
 O         -2.4039929461        1.1157372853        1.6610459164
 O         -1.0582067107        1.8109781354        0.0056636504
 C         -2.8682607096        0.4175417529       -0.6043238121
 C         -2.1228704258        1.1753797043        0.4857873231
 C         -2.8749375501        1.1142579551       -1.9566492057
 H          1.5969744081       -1.4923175489        1.1495319710
 H          3.1408201701       -3.8140595305       -0.1219694228
 H          2.4611554593       -3.7930232196        1.5080396609
 H          3.8132425063       -2.7260078014        1.1097058648
 H          0.3929005938        1.5732937616       -1.9686446911
 H          3.4389235679       -1.4561978459       -1.0585930712
 H          2.1979953598        0.0702251188       -3.4049575961
 H          2.7960416301        2.5006113723       -3.0698277997
 H          2.5631530943        2.2804640605       -1.3143916107
 H          4.4104353886        0.6594221126       -1.5884344895
 H          4.4652801926        0.4337571300       -3.2083069660
 H         -0.4381100031       -2.1133933204        1.2357203122
 H         -1.5631646734       -3.5744950349       -1.0663863773
 H         -2.3505029848       -3.8328261625        1.8813511156
 H         -1.6313737443       -5.0998684630        0.8703428715
 H         -3.2735261962       -4.5114597201        0.5429523775
 H         -1.1716806986       -0.8027467397       -0.8554615177
 H         -3.8838890149        0.2018121472       -0.2533121414
 H         -1.8608915416        1.2585025686       -2.3183795308
 H         -3.3629857142        2.0819379653       -1.8770711980
 H         -3.4199596975        0.5030640853       -2.6707935094
 C         -0.1641591622        2.4338494317        0.8555768333
 C          0.1076068752        1.9771799865        2.1443062084
 C          0.4608345341        3.5728595807        0.3610286733
 C          0.9992827175        2.6994130079        2.9331376839
 C          1.6299845450        3.8256000344        2.4399134004
 C          1.3665677411        4.2568618275        1.1485754275
 H          0.2315531337        3.8903313607       -0.6440620074
 H          2.3251051658        4.3680339129        3.0623132844
 H          1.8592162127        5.1339511006        0.7577782884
 H          1.2052444463        2.3542503748        3.9356188870
 C         -0.4732740881        0.7228801835        2.6955793507
 O         -0.2294058463       -0.3819101249        2.2679830387
 H         -1.0171309043        0.8593840987        3.6458713464
