  56
        -94.14797578
 C          2.3742681277       -0.9541280439       -0.4059487266
 C          3.7706069028       -1.5608264329       -0.5715321511
 C          1.3381692369       -1.9225219896       -0.9736815974
 O          0.9980013612       -1.8896820544       -2.1464822165
 O          2.1234931734        1.6381831601        0.6925770347
 O         -0.1430232169        3.6457890350       -2.6573101346
 N          2.2651305611        0.2949707463       -1.1270191171
 C          2.0295269201        1.4652663186       -0.5075835314
 C          1.6906470225        2.6324369392       -1.4444150992
 C          0.2009270366        2.5756702151       -1.8225116835
 N          1.9145618277        3.9256167099       -0.8099806380
 N          0.9027778175       -2.8515793106       -0.1052110255
 C         -0.1566837516       -3.7937918333       -0.4511796262
 C         -0.1087786708       -4.9985508944        0.4713368664
 C         -1.4588391722       -2.9981028571       -0.2889844717
 O         -2.1084640441       -2.9977357303        0.7358892320
 N         -1.7635728066       -2.2218244610       -1.3617330822
 O         -0.5050025763       -0.0693848893       -0.4083058558
 O         -2.3806508319        0.6241338981        0.6018496061
 C         -2.5735812854       -1.0394690740       -1.1231388269
 C         -1.7033325148       -0.1069881180       -0.2855573379
 C         -2.9645713090       -0.3709266281       -2.4338953445
 H          2.1724952006       -0.7440892438        0.6482389467
 H          4.5182013851       -0.8625502392       -0.2049974099
 H          3.9643511861       -1.7681514336       -1.6217361601
 H          3.8450852997       -2.4871294473       -0.0085410403
 H          0.3061299862        4.4222895115       -2.2920510756
 H          2.0107240640        0.1858520249       -2.0997350738
 H          2.2915836856        2.5770273457       -2.3580549261
 H         -0.3914318187        2.6036313548       -0.8956746865
 H         -0.0294906185        1.6533184409       -2.3587395620
 H          2.9099212494        4.1096127775       -0.7377713998
 H          1.5640520916        3.8645198938        0.1449845937
 H          1.0574165515       -2.6986298701        0.8842052454
 H         -0.0142040287       -4.0774637185       -1.4987206641
 H          0.8797703736       -5.4494589894        0.4545313633
 H         -0.8423747613       -5.7345841283        0.1545832119
 H         -0.3494966969       -4.6895375486        1.4858127135
 H         -1.0263261868       -2.1058804114       -2.0537367628
 H         -3.4545507864       -1.3289156954       -0.5425867090
 H         -3.5354577305       -1.0665271654       -3.0430065498
 H         -2.0725304647       -0.0725319207       -2.9804073266
 H         -3.5689947432        0.5107355079       -2.2393972443
 C         -1.6011500749        1.4061639890        1.4604340733
 C         -0.5896568810        0.8154533675        2.2264083468
 C         -1.7961570017        2.7751826012        1.4772171895
 C          0.2485959807        1.6355839906        2.9769267135
 C          0.0513587806        3.0027690295        3.0008111597
 C         -0.9771961680        3.5692238685        2.2649677692
 H         -2.5733877363        3.2065111248        0.8653068623
 H          0.7082529281        3.6303609583        3.5828433774
 H         -1.1305162736        4.6377859768        2.2778872949
 H          1.0507902560        1.1758934608        3.5319277994
 C         -0.4044517457       -0.6429647150        2.2165133878
 O          0.6465776084       -1.2140541587        2.3756565700
 H         -1.3349664180       -1.2195859399        2.0524248994
