  56
        -94.14797536
 C          2.3729149028       -0.9614345252       -0.3807722786
 C          3.7683279791       -1.5747702727       -0.5275760097
 C          1.3401163015       -1.9179536325       -0.9744770678
 O          1.0176475077       -1.8697772578       -2.1517547981
 O          2.1088626011        1.6244174999        0.7333576708
 O         -0.0957609978        3.6400366311       -2.6607701856
 N          2.2828046190        0.2941762283       -1.0931827743
 C          2.0358671313        1.4598904139       -0.4693588964
 C          1.7118448362        2.6330807611       -1.4041468030
 C          0.2329325667        2.5688656853       -1.8212527464
 N          1.9105224720        3.9224986051       -0.7540000751
 N          0.8867127968       -2.8544700862       -0.1233961559
 C         -0.1748065734       -3.7843027664       -0.4956806596
 C         -0.1483843753       -5.0010930784        0.4117900692
 C         -1.4727871383       -2.9805311343       -0.3404573423
 O         -2.1351531949       -2.9871844783        0.6762111442
 N         -1.7588860516       -2.1894508318       -1.4077105969
 O         -0.4931764358       -0.0685504896       -0.4026228999
 O         -2.3762954127        0.6411766249        0.5816020859
 C         -2.5614334399       -1.0032156351       -1.1631591178
 C         -1.6939176035       -0.0909542550       -0.3009415908
 C         -2.9296808681       -0.3124714955       -2.4689951841
 H          2.1540514347       -0.7592243523        0.6714900764
 H          4.5134377026       -0.8846012827       -0.1410945531
 H          3.9794271546       -1.7731902756       -1.5761608979
 H          3.8273145131       -2.5068912263        0.0276002125
 H          0.3378069571        4.4182231300       -2.2807437167
 H          2.0458882808        0.1932974279       -2.0712755095
 H          2.3363398225        2.5894763194       -2.3025395115
 H         -0.3836253732        2.5899152836       -0.9101745778
 H          0.0219144591        1.6473055710       -2.3668284697
 H          2.9024929242        4.1114499569       -0.6529681739
 H          1.5344659028        3.8521900890        0.1905587593
 H          1.0272191564       -2.7136454518        0.8699305524
 H         -0.0202279203       -4.0555608302       -1.5447793999
 H          0.8369032847       -5.4592794554        0.4024293860
 H         -0.8831274482       -5.7273995180        0.0757965803
 H         -0.4004207689       -4.7031599407        1.4268281049
 H         -1.0124032090       -2.0709677296       -2.0892029052
 H         -3.4524832911       -1.2927941198       -0.5982164655
 H         -3.5279147272        0.5722423820       -2.2693086044
 H         -3.4997321429       -0.9937157368       -3.0948808734
 H         -2.0283157975       -0.0149314224       -3.0004427378
 C         -1.6007474432        1.4051361856        1.4600197657
 C         -0.6084543584        0.7948201571        2.2355849587
 C         -1.7795078042        2.7761993624        1.4872989583
 C          0.2270127874        1.5973253183        3.0078323960
 C          0.0456118773        2.9664603921        3.0425992296
 C         -0.9638651677        3.5525447542        2.2958238867
 H         -2.5416755524        3.2229129830        0.8674913212
 H          0.7005494371        3.5802523894        3.6412919749
 H         -1.1044058143        4.6227721802        2.3167458394
 H          1.0147291653        1.1225773977        3.5708827952
 C         -0.4383444804       -0.6654290467        2.2119757183
 O          0.6049027654       -1.2487826001        2.3775803250
 H         -1.3725879513       -1.2307505839        2.0305195436
