  56
        -94.14794788
 C         -2.2576781369       -0.2789370279       -1.9203472052
 C         -1.8593576177       -1.2630873533       -3.0058885004
 C         -1.1327494953        0.7204828556       -1.5971623350
 O          0.0427937649        0.5279190708       -1.8412039852
 O         -3.8398888773        0.6601077823        0.1974677676
 O         -5.0593477096        0.1892840066        2.5862835911
 N         -2.5634818544       -0.9811719950       -0.6855897847
 C         -3.2748674391       -0.4316625780        0.2954772204
 C         -3.3580700468       -1.2616493127        1.5731729374
 C         -4.7683478647       -1.1192874369        2.1950819013
 N         -2.9620773045       -2.6331382060        1.3138212119
 N         -1.6034918404        1.8336934517       -0.9964559274
 C         -0.6819574030        2.7554446611       -0.3703057580
 C         -1.4513568816        3.8973872317        0.2825307765
 C          0.1378883587        2.0022974336        0.6889450583
 O         -0.2836166301        1.0283104791        1.2722333106
 N          1.3427279482        2.5627342667        0.9458267206
 O          4.1151867456        1.5383602764        0.1900660622
 O          2.6786270351       -0.1367341320        0.7048845843
 C          2.3342148816        1.9098069451        1.7839035433
 C          3.1923485154        1.0891719071        0.8127405610
 C          3.1655248834        2.9323490795        2.5410431407
 H         -3.1515186032        0.2862345186       -2.2121491110
 H         -0.9890523728       -1.8284353538       -2.6859770090
 H         -1.6079592455       -0.7246441586       -3.9154923652
 H         -2.6763364034       -1.9503126105       -3.2095763989
 H         -4.8498592290        0.7529020449        1.8198947778
 H         -2.0054172770       -1.8061081611       -0.4663831641
 H         -2.6289856767       -0.8165146501        2.2631232730
 H         -4.8367037332       -1.7406594458        3.0947790204
 H         -5.5115127162       -1.4856341531        1.4648704358
 H         -3.6815393327       -3.1128022031        0.7821471148
 H         -2.8290985000       -3.1365504945        2.1827685851
 H         -2.5433310983        1.7856423858       -0.6061054463
 H         -0.0014884442        3.1313542480       -1.1448461855
 H         -2.0480155412        4.4172283178       -0.4628865480
 H         -0.7664671769        4.6045487425        0.7434340590
 H         -2.1142586013        3.5007341673        1.0483822165
 H          1.6950789133        3.2807598166        0.3306459066
 H          1.7896498362        1.2354868781        2.4509003647
 H          3.7682901639        3.5074715274        1.8416366816
 H          3.8315343871        2.4292851040        3.2363790688
 H          2.5167880385        3.6040056277        3.0965127988
 C          3.0721132564       -1.0483480608       -0.2586385331
 C          2.0815163786       -1.9249503787       -0.7277180060
 C          4.3720882095       -1.1450130806       -0.7293581529
 C          2.4270356728       -2.8807359912       -1.6822055149
 C          3.7192243512       -2.9713068786       -2.1587401169
 C          4.6875563508       -2.1041522319       -1.6788427060
 H          5.1319565210       -0.4730760544       -0.3655548932
 H          3.9747649915       -3.7131054938       -2.8998646365
 H          5.7019117764       -2.1701316857       -2.0424235901
 H          1.6512807950       -3.5443348199       -2.0341594472
 C          0.6969089476       -1.8456041813       -0.2489201316
 O         -0.1870342118       -2.5767690371       -0.6357279652
 H          0.5042371457       -1.0681925561        0.5038833163
