  56
        -94.14794635
 C          1.2482540174        2.0504660908       -1.4640527315
 C          0.9943201902        2.2193297213       -2.9524523826
 C          2.0002919491        0.7361927043       -1.1624229613
 O          2.1505950188       -0.1490159948       -1.9900700371
 O          0.8766446522        2.6280201993        1.2760566722
 O         -1.0309898279        4.6799898968        2.0812784336
 N         -0.0066782303        2.0943784078       -0.7315464042
 C         -0.0957966283        2.4186212866        0.5596058674
 C         -1.5310568373        2.5088680206        1.0808238256
 C         -1.5639726289        3.4076035271        2.3375538376
 N         -2.3929379868        2.9648353468        0.0011094623
 N          2.4962725425        0.6986504586        0.0779331409
 C          3.3451030497       -0.3657739943        0.5869590116
 C          4.0476949604        0.1132574029        1.8463665643
 C          2.5108210916       -1.6306619587        0.8765096546
 O          2.1770367582       -1.9736224746        1.9899192043
 N          2.2329745723       -2.3311010694       -0.2428391061
 O         -0.8859673728       -3.9566009449        0.4802529902
 O         -0.3033265086       -1.8601969005       -0.1098440099
 C          1.3950301186       -3.5037943668       -0.1821195102
 C         -0.0608177374       -3.1640031558        0.1277878628
 C          1.4596649837       -4.2749850468       -1.4975995075
 H          1.8789390064        2.8691082511       -1.0884665156
 H          0.3508669588        1.4259296735       -3.3213052020
 H          1.9366950722        2.1713264887       -3.4907109679
 H          0.5215794630        3.1785521514       -3.1472248928
 H         -0.0797514182        4.5701121450        1.9510218665
 H         -0.8733858591        2.0073892986       -1.2467170157
 H         -1.8385773324        1.4951368197        1.3660936461
 H         -1.0237457331        2.9082321144        3.1506373036
 H         -2.6014943342        3.5643504892        2.6455661007
 H         -2.2210573277        3.9552090129       -0.1549230538
 H         -3.3667442405        2.8704113682        0.2679807661
 H          2.2117927049        1.4228762683        0.7358823170
 H          4.0703651239       -0.6168460242       -0.1980384699
 H          4.7372595935       -0.6494367812        2.1967483779
 H          3.3124617529        0.2915672712        2.6271557984
 H          4.5979820875        1.0298590995        1.6503484708
 H          2.3170463374       -1.8446702302       -1.1346509689
 H          1.7452547245       -4.1327963895        0.6463950813
 H          0.8056613769       -5.1413002169       -1.4499915357
 H          2.4779930545       -4.6067830681       -1.6807072488
 H          1.1453600732       -3.6376013770       -2.3215534205
 C         -1.5588072087       -1.3396720951        0.1365608253
 C         -2.1632837176       -0.5742317341       -0.8696492773
 C         -2.1904109665       -1.5213532091        1.3568325517
 C         -3.4125060809       -0.0021888899       -0.6248167819
 C         -4.0481682889       -0.1955329259        0.5847893851
 C         -3.4344947435       -0.9519974179        1.5733520188
 H         -1.7085586490       -2.1062129581        2.1242613211
 H         -5.0202739197        0.2383755401        0.7632675648
 H         -3.9252800769       -1.1016014128        2.5230154498
 H         -3.8608298429        0.5845667152       -1.4119862382
 C         -1.5060682195       -0.3779889929       -2.1666285207
 O         -1.9130390432        0.3537219795       -3.0359249297
 H         -0.5736034013       -0.9545799475       -2.2956761277
