  56
        -94.15244130
 C         -3.5320658418       -2.3351808252       -0.0008328941
 C         -4.3946565386       -2.7073553762       -1.1946678596
 C         -3.5559274990       -0.8208800850        0.2595612805
 O         -3.9787573409       -0.0090808634       -0.5498677072
 O         -1.5372913821       -2.7547866791        1.9216685253
 O         -0.0870086725       -2.3233748114       -1.9379941640
 N         -2.1525418970       -2.7285272376       -0.2467750657
 C         -1.2589594117       -2.9055186771        0.7355558342
 C          0.1711922469       -3.2918217421        0.3315764372
 C          0.4267210815       -3.3948824379       -1.1796147561
 N          1.1327162511       -2.3782431580        0.9351702526
 N         -3.0279962296       -0.4905382193        1.4462417083
 C         -2.7672007619        0.8845942747        1.8382170848
 C         -2.4868902026        0.9513420067        3.3292486689
 C         -1.5662643790        1.3758883724        1.0189761167
 O         -0.4255283182        1.4352024837        1.4491357119
 N         -1.8607689675        1.7021180270       -0.2452469783
 O          0.6118841621        0.1369578226       -0.7222742321
 O          1.4872179295        2.1967523806       -0.4883651987
 C         -0.7814595831        2.0641736380       -1.1459439675
 C          0.4883464314        1.3406580561       -0.6930835082
 C         -1.1236902926        1.6496233025       -2.5720541251
 H         -3.8650463552       -2.8535217820        0.9063692780
 H         -4.3091968515       -3.7698194980       -1.4060641249
 H         -4.0819663936       -2.1386937195       -2.0672266436
 H         -5.4334489567       -2.4668924968       -0.9871622171
 H          0.2801512221       -1.4942523767       -1.5894517927
 H         -1.8093746878       -2.6519239144       -1.1996834216
 H          0.3598402242       -4.2815414767        0.7716555899
 H         -0.0482274050       -4.2963005017       -1.5770932656
 H          1.5112572534       -3.4778946328       -1.3201758633
 H          0.9303486792       -2.2920100176        1.9263596956
 H          1.0444580876       -1.4526016206        0.5239392138
 H         -2.5678986863       -1.2272354154        1.9853585772
 H         -3.6439651412        1.4855435849        1.5681426139
 H         -3.3227848285        0.5393065492        3.8880037640
 H         -2.3281983054        1.9828503767        3.6311771924
 H         -1.5876624568        0.3843570175        3.5579065936
 H         -2.7686709707        1.4433122232       -0.6293680042
 H         -0.5973802120        3.1448610381       -1.0814637124
 H         -0.3352880454        1.9569088079       -3.2542529015
 H         -2.0556410741        2.1179803248       -2.8781284424
 H         -1.2339062819        0.5687236802       -2.6279206411
 C          2.6997563639        1.7084285002       -0.0130766728
 C          3.8772859759        2.0362173282       -0.6961382666
 C          2.7397996951        0.9396750429        1.1380364182
 C          5.0924078575        1.5643717783       -0.1956056036
 C          5.1328515774        0.7853582773        0.9426539129
 C          3.9563109382        0.4765047207        1.6096074044
 H          1.8180933028        0.7277582800        1.6564661678
 H          6.0775926682        0.4198890558        1.3149317484
 H          3.9816848519       -0.1284827047        2.5026781476
 H          5.9920565415        1.8261202090       -0.7322790654
 C          3.8538336942        2.8506542073       -1.9170728376
 O          4.8231328068        3.1503464325       -2.5662071424
 H          2.8414991230        3.1847766648       -2.2130563653
