  56
        -94.14794305
 C          1.3604643843        1.9777562645       -1.4615203799
 C          1.1001091921        2.1854090282       -2.9438349728
 C          2.0282689062        0.6131040782       -1.1880194584
 O          2.0852461499       -0.2788902127       -2.0200266094
 O          1.0649306018        2.5323110831        1.2895988611
 O         -0.7013835351        4.6792048665        2.1636833102
 N          0.1202355192        2.0883030939       -0.7114757818
 C          0.0706252859        2.3943534317        0.5863533831
 C         -1.3488685129        2.5627082651        1.1313150894
 C         -1.3087417053        3.4375457178        2.4045370994
 N         -2.1958986431        3.0917734532        0.0731352042
 N          2.5638574906        0.5361308929        0.0341161995
 C          3.3569747679       -0.5860324768        0.5072463333
 C          4.1572428169       -0.1561189443        1.7255321989
 C          2.4507849794       -1.7873911589        0.8469084035
 O          2.1674777342       -2.1145711938        1.9787702945
 N          2.0483438991       -2.4553327940       -0.2540057670
 O         -1.1782076615       -3.8640668107        0.4767855112
 O         -0.4443209087       -1.8107679165       -0.0942982095
 C          1.1384027562       -3.5687741946       -0.1480157921
 C         -0.2951902848       -3.1293913656        0.1387547531
 C          1.1592977372       -4.4031425868       -1.4262128150
 H          2.0457363484        2.7490756447       -1.0817698387
 H          0.6782156912        3.1721201178       -3.1169910139
 H          0.4108505822        1.4343955064       -3.3185518579
 H          2.0327261351        2.0961248930       -3.4937374240
 H          0.2392561549        4.5131094604        2.0168930476
 H         -0.7572318229        2.0611959484       -1.2145980356
 H         -1.7149895073        1.5647572446        1.4024826840
 H         -0.7895613906        2.8902878750        3.2003433602
 H         -2.3302798816        3.6521648310        2.7306374147
 H         -1.9641787413        4.0722105001       -0.0676756119
 H         -3.1697205487        3.0537436004        0.3537407932
 H          2.3440195805        1.2689893124        0.7067667906
 H          4.0204710760       -0.8906372011       -0.3126433794
 H          4.7639644137        0.7155852560        1.4943903938
 H          4.8047000221       -0.9672633300        2.0461122718
 H          3.4788240451        0.0799996677        2.5415831962
 H          2.1282482731       -1.9796107696       -1.1516739573
 H          1.4489474350       -4.1783223944        0.7105086884
 H          0.8900710406       -3.7861494170       -2.2810669828
 H          0.4499859122       -5.2218823069       -1.3428481835
 H          2.1546818164       -4.8081141436       -1.5864653218
 C         -1.6680398070       -1.2105048228        0.1331855766
 C         -2.2123083224       -0.4148875807       -0.8837291878
 C         -2.3242998496       -1.3463983371        1.3464056262
 C         -3.4253868022        0.2362233213       -0.6555549901
 C         -4.0857376084        0.0898464947        0.5473749690
 C         -3.5326597696       -0.6990773080        1.5460726439
 H         -1.8898723975       -1.9572072215        2.1219514638
 H         -5.0305118183        0.5850966135        0.7123314717
 H         -4.0428478338       -0.8132993320        2.4904137499
 H         -3.8272768058        0.8457064276       -1.4505149470
 C         -1.5322221102       -0.2689953896       -2.1760613408
 O         -1.8890048804        0.4774150946       -3.0547689089
 H         -0.6338132629       -0.8996280140       -2.2918548552
