  56
        -94.14794060
 C          1.3937765408        1.9609481603       -1.4652721792
 C          1.1360663608        2.1729973801       -2.9473933891
 C          2.0406476511        0.5860864596       -1.1922354637
 O          2.0787063546       -0.3085408248       -2.0225069897
 O          1.1066629337        2.5112488841        1.2879294080
 O         -0.6320032596        4.6700346673        2.1825644046
 N          0.1553844153        2.0882999252       -0.7147251444
 C          0.1104229226        2.3888028316        0.5845401316
 C         -1.3066031799        2.5716370192        1.1312920455
 C         -1.2542710854        3.4337401684        2.4126539107
 N         -2.1461036980        3.1221364442        0.0780677409
 N          2.5801353398        0.5029152523        0.0277665072
 C          3.3551022760       -0.6313662702        0.5017293676
 C          4.1681192107       -0.2104341945        1.7147601027
 C          2.4305793919       -1.8161454298        0.8503049043
 O          2.1537033654       -2.1391637491        1.9849587681
 N          2.0050954293       -2.4763094803       -0.2464541467
 O         -1.2434072082       -3.8453496074        0.4697926221
 O         -0.4791526825       -1.7999755387       -0.0894120231
 C          1.0821437755       -3.5779843378       -0.1328986026
 C         -0.3484072454       -3.1209769422        0.1409489770
 C          1.1014649131       -4.4284850917       -1.4005228070
 H          2.0902118895        2.7220530183       -1.0853257570
 H          0.7279388832        3.1655828783       -3.1199670851
 H          0.4363516999        1.4318486982       -3.3223737831
 H          2.0672707199        2.0710655654       -3.4975065359
 H          0.3063663329        4.4936454056        2.0331637352
 H         -0.7224183357        2.0756560151       -1.2177685874
 H         -1.6864677050        1.5763261914        1.3931535107
 H         -0.7406312416        2.8725565553        3.2023355999
 H         -2.2726350640        3.6576414055        2.7423904721
 H         -1.9006937488        4.1005200133       -0.0535948695
 H         -3.1203793010        3.0951371549        0.3584142267
 H          2.3720000973        1.2392377823        0.7004428049
 H          4.0096466207       -0.9506617119       -0.3197715734
 H          3.4973995974        0.0434850876        2.5318302965
 H          4.7908306937        0.6479822305        1.4765374654
 H          4.8007049372       -1.0322627911        2.0377310432
 H          2.0887541555       -2.0048698120       -1.1459762972
 H          1.3818338559       -4.1799746169        0.7348702463
 H          0.8450815885       -3.8190610701       -2.2646955915
 H          0.3818502729       -5.2375654398       -1.3116199005
 H          2.0929666661       -4.8471335113       -1.5491588911
 C         -1.6969547095       -1.1848191764        0.1305041129
 C         -2.2232292605       -0.3791473730       -0.8879567717
 C         -2.3641245680       -1.3157156557        1.3383444460
 C         -3.4286741564        0.2881927471       -0.6662670625
 C         -4.0994728039        0.1476426587        0.5315588006
 C         -3.5648535893       -0.6523880072        1.5314380686
 H         -1.9441352490       -1.9351321406        2.1150110383
 H         -5.0382107126        0.6558527481        0.6914582354
 H         -4.0835121027       -0.7627627742        2.4716067679
 H         -3.8164236838        0.9055301235       -1.4621977781
 C         -1.5327851139       -0.2396618536       -2.1755060950
 O         -1.8745667073        0.5125822105       -3.0552250067
 H         -0.6418030521       -0.8815058168       -2.2866947799
