  56
        -94.14793428
 C         -1.7167936632        0.6082801448       -1.4669391427
 C         -1.6265670467       -0.5797518984       -2.4097507305
 C         -0.3173521186        1.0449238565       -0.9830631257
 O          0.6915336918        0.3857614196       -1.1621288216
 O         -3.0200715165        2.4032569355        0.2777942255
 O         -5.5254549606        2.5819963792        1.4045815400
 N         -2.5610873611        0.2801011419       -0.3337359088
 C         -3.1443678993        1.1876812186        0.4453876884
 C         -4.0417144205        0.6423119295        1.5471475961
 C         -5.4610113165        1.1936347330        1.2782100106
 N         -4.0572993588       -0.8074915925        1.5468846377
 N         -0.3340514178        2.2380090960       -0.3778838041
 C          0.8569878878        2.8542889326        0.1777764250
 C          0.4567894499        3.8327761606        1.2747799596
 C          1.7603066885        1.7632864163        0.7752277612
 O          1.4309783615        1.1216502841        1.7478747714
 N          2.9819829261        1.6682892314        0.1969659518
 O          3.9593380565       -0.6946462970       -1.5076729373
 O          2.6483510647       -1.3664011466        0.2142586177
 C          3.8909603726        0.5890270138        0.5421987110
 C          3.5373025351       -0.5748220228       -0.3918856822
 C          5.3359071476        1.0270237495        0.3627522149
 H         -2.1690473064        1.4717326038       -1.9739864124
 H         -2.6199759264       -0.8852645078       -2.7281811173
 H         -1.1325084986       -1.4112979946       -1.9135960971
 H         -1.0379080902       -0.3116469371       -3.2825984667
 H         -4.7474239346        2.9507138023        0.9499743680
 H         -2.6748927008       -0.6931665580       -0.0817753501
 H         -3.6932597273        1.0913602116        2.4955564081
 H         -6.1595201058        0.7769723794        2.0105293764
 H         -5.7774932674        0.8666215329        0.2749289957
 H         -4.7786427585       -1.1480488320        2.1724813755
 H         -3.1676833235       -1.1736234027        1.8740569319
 H         -1.2376134657        2.6607190941       -0.1642890973
 H          1.3933997058        3.3796284546       -0.6260201783
 H          0.0087836203        3.2839913493        2.0995885632
 H         -0.2615631298        4.5541183166        0.8930480918
 H          1.3319147185        4.3628410225        1.6417136214
 H          3.1107971300        2.0555743600       -0.7262596851
 H          3.6657056832        0.3055003951        1.5744883315
 H          5.5178879259        1.9467613745        0.9118110965
 H          5.5426550486        1.1892276995       -0.6926612550
 H          6.0075091628        0.2565191540        0.7308833073
 C          1.9474056281       -2.3502038854       -0.4470837921
 C          0.6189979969       -2.5546026292       -0.0419672944
 C          2.4992201571       -3.1376561750       -1.4462825176
 C         -0.1304855962       -3.5544452872       -0.6635718319
 C          0.4194242555       -4.3360666254       -1.6590195387
 C          1.7329233664       -4.1230082619       -2.0473872335
 H          3.5174075449       -2.9760546661       -1.7596491765
 H         -0.1695094168       -5.1062661473       -2.1331378768
 H          2.1709223164       -4.7294419058       -2.8257321575
 H         -1.1509373449       -3.6984695983       -0.3383571822
 C         -0.0008115090       -1.7153951641        0.9883391796
 O         -1.1829038109       -1.7502690187        1.2553115948
 H          0.6786621453       -1.0268329527        1.5083220913
