  56
        -94.14792484
 C         -1.0315657896       -2.9303492425       -1.9420842756
 C         -1.1300152686       -3.0326591855       -3.4542452801
 C         -2.2264464607       -2.1711752941       -1.3458769557
 O         -3.0182361562       -1.5340844714       -2.0189769541
 O          0.3874019136       -3.2070189678        0.4362871867
 O          1.9193910859       -1.9179212359        2.2976053992
 N          0.1666912343       -2.1922665580       -1.5618979123
 C          0.7559691727       -2.3492210634       -0.3662400575
 C          1.9559056368       -1.4466532833       -0.0938913201
 C          1.8292669799       -0.9000797899        1.3420937210
 N          3.2172855818       -2.1600089769       -0.2164431360
 N         -2.2661635686       -2.2360444751       -0.0037267667
 C         -3.0408099326       -1.2930184155        0.7918580743
 C         -3.0058411594       -1.6935055656        2.2552524738
 C         -2.3664824110        0.0674520057        0.5606080520
 O         -1.4328439442        0.4739824565        1.2276331310
 N         -2.8484119284        0.7487866733       -0.4976531651
 O         -0.1098109461        0.6829636781       -1.4118103915
 O          0.0143134080        2.5628129640       -0.1711780708
 C         -2.1239409486        1.9279504697       -0.9402810777
 C         -0.6248303966        1.6255500659       -0.8640947100
 C         -2.5122053457        2.2737329492       -2.3711773813
 H         -0.9606564754       -3.9206572046       -1.4783943063
 H         -1.2449303703       -2.0401713265       -3.8832333934
 H         -2.0008603059       -3.6225869533       -3.7253237526
 H         -0.2387559111       -3.5019065808       -3.8621092131
 H          1.2900068939       -2.6119258943        2.0321655211
 H          0.3454869756       -1.3392935270       -2.0735057117
 H          1.9544736953       -0.6105609251       -0.8008524594
 H          0.8802811648       -0.3506768086        1.4321648600
 H          2.6572919999       -0.2149006598        1.5360696345
 H          3.3657685950       -2.7120935545        0.6240857932
 H          3.2096834282       -2.7863249668       -1.0140847205
 H         -1.5119428401       -2.7194484616        0.4761336723
 H         -4.0640476001       -1.2705080754        0.4014806316
 H         -3.6550510557       -1.0417774648        2.8333981801
 H         -1.9919583994       -1.5927407133        2.6365691758
 H         -3.3368871923       -2.7218272422        2.3739311657
 H         -3.3729055941        0.2295985991       -1.1967796822
 H         -2.3372111043        2.7593914921       -0.2578268716
 H         -2.2647797136        1.4431204962       -3.0288321316
 H         -1.9795772643        3.1611090972       -2.7034974331
 H         -3.5807710229        2.4644050071       -2.4272079478
 C          1.3786493824        2.4571775823        0.0734958603
 C          1.8208949634        2.6463976894        1.3882037494
 C          2.2856518565        2.2288518111       -0.9481560709
 C          3.1902547964        2.6092497416        1.6465501450
 C          4.0951310127        2.3667534417        0.6316144251
 C          3.6407816914        2.1740936608       -0.6630130328
 H          1.9338999547        2.0965500065       -1.9595692631
 H          5.1519365304        2.3260610180        0.8449615521
 H          4.3420637546        1.9840232510       -1.4608983466
 H          3.5138163474        2.7617410603        2.6652680475
 C          0.8705171083        2.8477055846        2.4973579971
 O          1.1881865936        3.1951838822        3.6052641768
 H         -0.1792569916        2.6373567875        2.2338504483
