  56
        -94.14791823
 C         -1.9023853759       -2.8611422517        0.3682557261
 C         -2.6724511668       -4.1552534951        0.5656269776
 C         -2.8670802641       -1.6518126284        0.3560909142
 O         -3.9128715915       -1.6908273618       -0.2600476805
 O          0.1126860230       -1.1308210785       -0.4473794060
 O          1.9131643791       -0.3426885962       -2.2618626272
 N         -1.2236963000       -2.8789986325       -0.9170213402
 C         -0.3101510788       -1.9676466611       -1.2419217256
 C          0.1920355301       -2.0345969812       -2.6841678065
 C          1.6885766291       -1.6414454229       -2.7254771313
 N         -0.1035321866       -3.3365591094       -3.2574191554
 N         -2.4180264217       -0.5851071663        1.0294656975
 C         -3.1443443204        0.6605909253        1.1042852903
 C         -3.3510789017        1.0656577934        2.5636053986
 C         -2.4561892395        1.8233725018        0.3732870951
 O         -2.9477449027        2.9338097245        0.3761056784
 N         -1.3089743794        1.5243582700       -0.2645991310
 O          1.6043169808        3.5922868844       -0.4110619341
 O          1.2066256445        1.4833251169        0.2950927638
 C         -0.5177304819        2.5488103407       -0.8990882153
 C          0.8853163533        2.6377424643       -0.3140740464
 C         -0.3661147559        2.2984434589       -2.4058466655
 H         -1.1405689988       -2.7217119519        1.1429820942
 H         -3.4992110710       -4.1905779213       -0.1404362017
 H         -3.0804495479       -4.1921171129        1.5719508021
 H         -2.0254444121       -5.0161138870        0.4146189484
 H          1.4764199930       -0.2915600890       -1.3895664136
 H         -1.5930422071       -3.4564967030       -1.6606007473
 H         -0.3767263902       -1.2788738924       -3.2423481961
 H          2.0522009188       -1.6775969414       -3.7576385597
 H          2.2603804293       -2.3736529064       -2.1297221276
 H          0.5230481992       -4.0368560236       -2.8718376774
 H          0.0358333811       -3.3217826416       -4.2613342854
 H         -1.5208960336       -0.6011898541        1.5002193570
 H         -4.1134869065        0.4985942728        0.6174654788
 H         -2.3868556574        1.1335089299        3.0631395452
 H         -3.9693410318        0.3346610911        3.0783643837
 H         -3.8357196772        2.0369286776        2.5997553523
 H         -0.8908185140        0.6062017446       -0.1788500039
 H         -1.0318533171        3.5030813152       -0.7325899590
 H          0.1976987502        1.3854550557       -2.5855317141
 H          0.1613963614        3.1304796301       -2.8638882051
 H         -1.3510129073        2.2098443412       -2.8564852324
 C          2.4524165110        1.1859144359        0.7764665190
 C          2.5177166051        0.2573227915        1.8333169814
 C          3.6207385595        1.6846260631        0.2154060888
 C          3.7736468987       -0.1373044666        2.3009520306
 C          4.9307657593        0.3751637746        1.7533573213
 C          4.8493711932        1.2846251995        0.7090288166
 H          3.5644165406        2.3811616185       -0.6043347549
 H          5.8932582853        0.0660024432        2.1308788863
 H          5.7504219770        1.6817657366        0.2673118402
 H          3.8258771291       -0.8516395394        3.1101308332
 C          1.3269074034       -0.3107787650        2.4618168363
 O          0.1751924761       -0.0064472854        2.2716140764
 H          1.5774215498       -1.1007887250        3.2002909048
