  56
        -94.15243680
 C         -0.5930242582       -1.2508092848       -2.5935055625
 C          0.6809597861       -1.0335966832       -3.4060737072
 C         -1.0965546494        0.0830451391       -2.0077824259
 O         -0.5781139577        1.1487426593       -2.2667439366
 O          0.1724769100       -0.6446525392        0.0480973296
 O         -2.1259400491       -3.1173767756        0.6817384425
 N         -0.3709489106       -2.1845649502       -1.5074586095
 C          0.0637420118       -1.8099453125       -0.2989330554
 C          0.3408690187       -2.9838301062        0.6316476398
 C         -0.9537430321       -3.2701822857        1.4357681760
 N          0.7237752635       -4.1427691724       -0.1681137766
 N         -2.2385288897       -0.0600881369       -1.3003160999
 C         -2.6971203165        0.9497892129       -0.3625817354
 C         -4.2179879041        1.0437862551       -0.3837930185
 C         -2.2033117194        0.4961425327        1.0204679719
 O         -2.5985150173       -0.5582937654        1.5027999163
 N         -1.3488864097        1.3227283620        1.6255706991
 O          1.5212878994       -0.4035260032        2.5833840850
 O          1.2265379422        1.4665915103        1.3252811022
 C         -0.5285781003        0.8952463562        2.7397953407
 C          0.8622871399        0.5253971821        2.2072063453
 C         -0.3977892503        2.0136450197        3.7714370196
 H         -1.3844030569       -1.6599288142       -3.2332737693
 H          1.0190002615       -1.9714495891       -3.8403119376
 H          1.4579938061       -0.6323024984       -2.7597449571
 H          0.4904953691       -0.3153476644       -4.1979063373
 H         -2.4925080205       -2.2402247776        0.8966413062
 H         -0.3778493244       -3.1832118306       -1.6758495541
 H          1.1140023996       -2.6693421302        1.3496034398
 H         -0.9658564528       -2.6105061835        2.3072193544
 H         -0.9186482336       -4.3096658654        1.7839182468
 H          0.6612453331       -4.9897441590        0.3855994576
 H          1.6830528889       -4.0480864556       -0.4852954210
 H         -2.5311205714       -1.0010395161       -1.0668825269
 H         -2.2332972904        1.8955515454       -0.6517334005
 H         -4.5679908976        1.2368259558       -1.3943262922
 H         -4.5463715017        1.8502949132        0.2660154355
 H         -4.6492660652        0.1107787282       -0.0270686487
 H         -0.9569479300        2.0958130788        1.0861273376
 H         -0.9836370494        0.0032229843        3.1804534513
 H          0.2434813597        1.6947728296        4.5889546288
 H         -1.3780286099        2.2659822264        4.1672451435
 H          0.0318074638        2.8957996888        3.3029389489
 C          2.1024568945        1.2661415099        0.2957903832
 C          1.8441504902        1.9996785052       -0.8783370760
 C          3.1852706440        0.4003645621        0.3589795620
 C          2.6962102285        1.8295544512       -1.9687410102
 C          3.7685497634        0.9620942589       -1.9072137452
 C          4.0082986877        0.2479797531       -0.7429526664
 H          3.3644486900       -0.1616753112        1.2610121639
 H          4.4148753093        0.8359154764       -2.7628072452
 H          4.8446238925       -0.4334855859       -0.6896187001
 H          2.4915333814        2.3783832672       -2.8758225049
 C          0.7004145606        2.9083461712       -1.0144689893
 O         -0.1182452903        3.1867151434       -0.1681725586
 H          0.6610660586        3.3951759848       -2.0034964607
