  56
        -94.14791544
 C         -1.7951241285       -2.8935109700        0.4041591534
 C         -2.5159664238       -4.2107494858        0.6322054453
 C         -2.8032926421       -1.7205387913        0.3781364990
 O         -3.8426592224       -1.8024879386       -0.2448244448
 O          0.1343255711       -1.0964319700       -0.4622748898
 O          1.8844954190       -0.2645248811       -2.3044884794
 N         -1.1265523922       -2.9105040144       -0.8864909242
 C         -0.2576717591       -1.9657268523       -1.2375517316
 C          0.2348945731       -2.0366952809       -2.6827212228
 C          1.7124499777       -1.5793757955       -2.7444280694
 N         -0.0079278502       -3.3605242117       -3.2300571405
 N         -2.3990865133       -0.6336879435        1.0476536505
 C         -3.1728469096        0.5838101346        1.1109605386
 C         -3.4279192002        0.9755430485        2.5662976779
 C         -2.5125628932        1.7736949567        0.3978639295
 O         -3.0314781650        2.8714558347        0.4155322134
 N         -1.3581686927        1.5120558996       -0.2432565497
 O          1.5077282517        3.6465053725       -0.3818240408
 O          1.1640580133        1.5181667649        0.2942738055
 C         -0.5948163674        2.5640122245       -0.8668343042
 C          0.8112362834        2.6745635673       -0.2930112713
 C         -0.4516350630        2.3425341919       -2.3790276666
 H         -1.0327656849       -2.7122046656        1.1695888106
 H         -2.9169180222       -4.2420637084        1.6415748423
 H         -1.8383906490       -5.0501388813        0.4947555440
 H         -3.3444604102       -4.2910657170       -0.0681133210
 H          1.4516983632       -0.2172203478       -1.4300250571
 H         -1.4780803272       -3.5167678307       -1.6156178034
 H         -0.3710500478       -1.3165752659       -3.2487682467
 H          2.0684217793       -1.6172074031       -3.7791747045
 H          2.3206964701       -2.2759507572       -2.1419245887
 H          0.6529513209       -4.0252559104       -2.8388185393
 H          0.1209617882       -3.3576160191       -4.2354734673
 H         -1.5052678696       -0.6143653964        1.5247920678
 H         -4.1244378713        0.3871309631        0.6025097898
 H         -2.4789752962        1.0753447699        3.0892218596
 H         -4.0325265734        0.2217554757        3.0640561136
 H         -3.9464813935        1.9294561320        2.5933337581
 H         -0.9196138840        0.6019505800       -0.1749250673
 H         -1.1281633791        3.5038726229       -0.6800797552
 H         -1.4388188101        2.2489421819       -2.8235394058
 H          0.1222138316        1.4402461923       -2.5796651524
 H          0.0611474567        3.1895364380       -2.8262588145
 C          2.4219053847        1.2355255084        0.7522485440
 C          2.5199170299        0.2777969079        1.7802299326
 C          3.5727079355        1.7739375985        0.1915389595
 C          3.7895007872       -0.1077381142        2.2174520037
 C          4.9289158949        0.4437352198        1.6705921543
 C          4.8155003122        1.3837191269        0.6567419006
 H          3.4919136383        2.4939258199       -0.6055835081
 H          5.9022846144        0.1413877082        2.0250267713
 H          5.7024888160        1.8124426833        0.2160690315
 H          3.8666357154       -0.8455219370        3.0032790586
 C          1.3492412874       -0.3280954553        2.4111019179
 O          0.1912645681       -0.0227558710        2.2657975401
 H          1.6236334059       -1.1490800538        3.1061576133
