  56
        -94.14790934
 C         -1.7662716450        0.5385808399       -1.4851979137
 C         -1.6372439406       -0.6514136458       -2.4208361613
 C         -0.3822272298        1.0296963631       -1.0096395387
 O          0.6489519608        0.4021734674       -1.1750120317
 O         -3.1214725274        2.2951147621        0.2571596262
 O         -5.5956013087        2.4004309956        1.4522667988
 N         -2.5888075032        0.1860940942       -0.3430299686
 C         -3.1946214241        1.0771255480        0.4379628308
 C         -4.0481058103        0.5088044632        1.5630470243
 C         -5.4905599521        1.0141789594        1.3299085816
 N         -4.0196700647       -0.9405458876        1.5693403232
 N         -0.4402284627        2.2317434311       -0.4241651527
 C          0.7291195647        2.8861121281        0.1329270231
 C          0.2934251972        3.8829354533        1.1994639814
 C          1.6441377310        1.8285017896        0.7706886176
 O          1.2977932834        1.1769593531        1.7308176352
 N          2.8909524005        1.7763585860        0.2433076729
 O          4.0419268616       -0.5286057646       -1.4179873661
 O          2.6958458308       -1.2728124215        0.2459959688
 C          3.8282220221        0.7371941512        0.6327514994
 C          3.5703489515       -0.4367709255       -0.3193634134
 C          5.2599327902        1.2378495274        0.5253244259
 H         -2.2543172813        1.3809796730       -1.9941641150
 H         -2.6206295821       -0.9990909287       -2.7268503232
 H         -1.1051426001       -1.4585308252       -1.9238927201
 H         -1.0687262540       -0.3659794054       -3.3015556009
 H         -4.8432040802        2.7906396718        0.9729519771
 H         -2.6548391750       -0.7888785562       -0.0802245569
 H         -3.6891099128        0.9729609965        2.5004805995
 H         -6.1557651614        0.5793452167        2.0824219799
 H         -5.8230405688        0.6723032055        0.3368818580
 H         -4.7143422991       -1.2999906751        2.2141455990
 H         -3.1116709375       -1.2804207655        1.8733687462
 H         -1.3577965067        2.6228726834       -0.2104286294
 H          1.2668141596        3.4019764643       -0.6759690740
 H         -0.1616641357        3.3464909726        2.0285302209
 H         -0.4289522411        4.5834886946        0.7877670441
 H          1.1530124511        4.4356560838        1.5697646539
 H          3.0464602465        2.1703264827       -0.6728820697
 H          3.5648363971        0.4412474555        1.6524311856
 H          5.5108785705        1.4135723657       -0.5182761516
 H          5.9453570307        0.4953826514        0.9243198862
 H          5.3748847440        2.1621176112        1.0848072262
 C          2.0686463617       -2.2846877827       -0.4467967596
 C          0.7376286232       -2.5545907602       -0.0920203944
 C          2.6944342946       -3.0382953487       -1.4281099550
 C          0.0603819493       -3.5853260767       -0.7450579030
 C          0.6835692816       -4.3331561464       -1.7231482691
 C          1.9987028173       -4.0552337534       -2.0617094418
 H          3.7146745801       -2.8264333607       -1.7024966784
 H          0.1502247070       -5.1276494572       -2.2223087656
 H          2.4936216883       -4.6351519779       -2.8260346602
 H         -0.9630585079       -3.7805123154       -0.4583016961
 C          0.0424969740       -1.7517116796        0.9186029842
 O         -1.1436579750       -1.8495953741        1.1494704395
 H          0.6681085943       -1.0289896951        1.4596288854
