  56
        -94.14789336
 C         -1.9141590335        1.6958907522       -1.3680346062
 C         -1.5867478585        1.3939215683       -2.8266784061
 C         -0.7863908901        2.5216144246       -0.7445774320
 O         -0.1006653278        3.2825713702       -1.4121081186
 O         -4.1347511267        1.1264169393        0.2572208274
 O         -5.9336788195       -0.9457643885        0.3146234099
 N         -2.1704738230        0.4740178430       -0.6435412704
 C         -3.3007109287        0.2571090096        0.0440147538
 C         -3.5086447194       -1.1771886368        0.5207419765
 C         -4.8222847657       -1.6570566686       -0.1365094948
 N         -2.3970554958       -2.0261750165        0.1271507085
 N         -0.6406326430        2.3819226477        0.5799583421
 C          0.4047407433        3.0558608108        1.3385902407
 C          0.0437010204        3.0850802278        2.8125142172
 C          1.6919681140        2.2596031164        1.0801359685
 O          2.1673631341        1.4716705622        1.8737192763
 N          2.2067763803        2.4621768646       -0.1536230727
 O          1.1519671107       -0.0114091393       -0.7725189278
 O          3.1755830310       -0.8968872738       -0.3427053314
 C          3.0813316255        1.4442453317       -0.6966803416
 C          2.3382312107        0.1108265176       -0.6094923487
 C          3.4260596449        1.7579557522       -2.1467405439
 H         -2.8294373801        2.3011106770       -1.2960512726
 H         -2.4330475737        0.9209275370       -3.3170153896
 H         -0.7273984859        0.7279232322       -2.8724273419
 H         -1.3402291310        2.3180053239       -3.3413751053
 H         -5.6892299663       -0.0021396518        0.3267971879
 H         -1.5652962738       -0.3204089596       -0.8098245244
 H         -3.6824129129       -1.1450962969        1.6103786971
 H         -4.9962302479       -2.7083338093        0.1163765544
 H         -4.7135420001       -1.5799500979       -1.2309084027
 H         -2.6721013816       -3.0008797243        0.1831246330
 H         -1.6198216322       -1.8950165318        0.7715279531
 H         -1.1651698931        1.6633118563        1.0570660135
 H          0.5124611618        4.0660461064        0.9276356001
 H          0.0304214933        2.0712316195        3.2063976685
 H         -0.9319024944        3.5423663953        2.9546424387
 H          0.7880896552        3.6535898904        3.3628193203
 H          1.6268710406        2.9766737272       -0.8178523801
 H          3.9851481562        1.3708635133       -0.0815781494
 H          3.9351559819        2.7164311095       -2.2005641390
 H          2.5152974002        1.8098186738       -2.7396652103
 H          4.0760246464        0.9890149919       -2.5559507600
 C          2.6617908009       -2.1798330362       -0.1967006173
 C          1.5971473706       -2.4492981530        0.6686421284
 C          3.2310344714       -3.1926637768       -0.9520217004
 C          1.0991413673       -3.7506448710        0.7282772908
 C          1.6699573267       -4.7622637077       -0.0180941106
 C          2.7443431740       -4.4844898324       -0.8491519547
 H          4.0507446101       -2.9559069607       -1.6121999840
 H          1.2810919249       -5.7666645436        0.0463084058
 H          3.1985413219       -5.2721419387       -1.4304267029
 H          0.2697523815       -3.9482105585        1.3905802080
 C          1.0207108619       -1.4087308359        1.5384261363
 O         -0.1215609932       -1.4138046883        1.9315695929
 H          1.7210633303       -0.6170485891        1.8492464373
