  56
        -94.14788022
 C         -0.1551061260       -0.2635232134       -2.7416861512
 C          0.9620693724       -1.1422572294       -3.2755110233
 C          0.3853900547        0.9545781536       -1.9660712834
 O          1.5348605401        1.0374569114       -1.5745830733
 O         -2.8506858298        0.2226028708       -2.1677672484
 O         -4.9910699478       -1.8036411107        0.7609303981
 N         -0.9910557066       -1.0017179870       -1.8079208990
 C         -2.2516735449       -0.6281010641       -1.5295440778
 C         -2.8570557186       -1.3252101315       -0.3199974156
 C         -4.3886553294       -1.4030060807       -0.4468357270
 N         -2.2230064493       -2.6139562340       -0.0668063104
 N         -0.5660833976        1.8794398856       -1.7455062088
 C         -0.4301821798        2.8902691481       -0.7128755396
 C         -1.4142166540        4.0234181690       -0.9650988523
 C         -0.7394190174        2.1998412545        0.6283781413
 O         -1.7930973259        1.6247452526        0.8247695632
 N          0.2389988350        2.2947011881        1.5469882779
 O          1.8339686681       -0.3066624055        3.2107017995
 O          0.6833433667       -0.3174171447        1.2750115126
 C          0.2431229962        1.4757280976        2.7410861459
 C          1.0488817412        0.2054063235        2.4667704953
 C          0.8235236721        2.2310425031        3.9266581386
 H         -0.8064922186        0.0844534981       -3.5510548682
 H          1.6503712674       -1.3958234951       -2.4731237506
 H          1.5146346080       -0.6045894957       -4.0407161650
 H          0.5545367314       -2.0538182431       -3.7045800271
 H         -4.8709452474       -1.0990702876        1.4076753409
 H         -0.5339933182       -1.6267827113       -1.1578808993
 H         -2.6142298146       -0.6645028221        0.5267336585
 H         -4.6606125627       -2.1649703691       -1.1833188432
 H         -4.7688936767       -0.4343617560       -0.7884240231
 H         -2.4307054095       -3.2466444136       -0.8359774933
 H         -2.6509865158       -3.0178939430        0.7625293853
 H         -1.5228936960        1.6460497271       -1.9995600383
 H          0.6047285632        3.2451411197       -0.7282200820
 H         -1.2850205950        4.8036980058       -0.2196868665
 H         -2.4296192372        3.6390708474       -0.8986924156
 H         -1.2567058320        4.4461153605       -1.9540117771
 H          1.1587060223        2.6002752715        1.2570162110
 H         -0.7984914516        1.1807324766        2.9227667472
 H          0.8407029846        1.5856411310        4.7997214251
 H          0.2261188487        3.1129695109        4.1394962554
 H          1.8437400443        2.5314160400        3.7021864701
 C          1.5214950456       -1.2337661576        0.6759792777
 C          2.8035202757       -0.8522802281        0.2556160752
 C          1.0396847498       -2.5092927228        0.4197597532
 C          3.5886245475       -1.7950652452       -0.4096530612
 C          3.1221216750       -3.0738709644       -0.6416265313
 C          1.8437568531       -3.4270446966       -0.2347127235
 H          0.0376177073       -2.7651822660        0.7332899096
 H          3.7462503452       -3.7931248514       -1.1493560880
 H          1.4692786121       -4.4211228555       -0.4258440761
 H          4.5751320193       -1.5075538341       -0.7423107144
 C          3.3163541767        0.5106632944        0.4310009752
 O          2.8446757993        1.3791106426        1.1231413163
 H          4.2385972296        0.6978726429       -0.1480685818
