  56
        -94.14787720
 C         -0.1316581352       -0.2766292079       -2.7416206491
 C          0.9890072116       -1.1606581652       -3.2590927456
 C          0.4032186172        0.9459489009       -1.9691713196
 O          1.5479527418        1.0283127423       -1.5640738924
 O         -2.8313715707        0.2176606500       -2.1918269733
 O         -4.9870275198       -1.7580058696        0.7597329864
 N         -0.9762006410       -1.0065440159       -1.8089641474
 C         -2.2376832202       -0.6274537980       -1.5414393223
 C         -2.8497348824       -1.3099211786       -0.3269028790
 C         -4.3818571865       -1.3754691419       -0.4525558141
 N         -2.2261220615       -2.6016557080       -0.0629105718
 N         -0.5483372148        1.8749778536       -1.7663261551
 C         -0.4228138231        2.8912982498       -0.7375462074
 C         -1.4032331281        4.0236002652       -1.0066565506
 C         -0.7473999854        2.2072157798        0.6032472712
 O         -1.8079738903        1.6429427335        0.7944125069
 N          0.2264863826        2.2925489725        1.5273158736
 O          1.7942330941       -0.3047615398        3.2229030338
 O          0.6709500580       -0.3210884114        1.2713343167
 C          0.2131890707        1.4782958634        2.7244971355
 C          1.0204230953        0.2057654368        2.4662197113
 C          0.7784109729        2.2370329963        3.9153035737
 H         -0.7756886544        0.0660484081       -3.5590418935
 H          1.6714554205       -1.4067353883       -2.4493880676
 H          1.5472066820       -0.6305335062       -4.0254765071
 H          0.5842099351       -2.0761741380       -3.6822838552
 H         -4.8600270249       -1.0476028090        1.3987651420
 H         -0.5246464840       -1.6265738570       -1.1503769600
 H         -2.6016862527       -0.6443081073        0.5145087650
 H         -4.6612473582       -2.1423758709       -1.1810548995
 H         -4.7533799298       -0.4068729166       -0.8036995752
 H         -2.4375442902       -3.2384771816       -0.8276463529
 H         -2.6587001942       -2.9958341209        0.7687538823
 H         -1.5027206238        1.6419276691       -2.0296554107
 H          0.6124637954        3.2453489715       -0.7432139822
 H         -1.2811495798        4.8081625367       -0.2645525262
 H         -2.4195374028        3.6402897086       -0.9484052153
 H         -1.2351155090        4.4403002630       -1.9963565146
 H          1.1509617716        2.5897076099        1.2437913427
 H         -0.8314488600        1.1861448742        2.8931892655
 H          0.1796602616        3.1208114111        4.1163379476
 H          1.8022284212        2.5346840064        3.7040886712
 H          0.7819492581        1.5948456938        4.7908962605
 C          1.5165969461       -1.2410927930        0.6883919525
 C          2.8048664132       -0.8628008266        0.2845080862
 C          1.0372909334       -2.5174708074        0.4316218678
 C          3.5981875021       -1.8093368278       -0.3655800367
 C          3.1336305660       -3.0886637550       -0.5984398689
 C          1.8494877323       -3.4388915484       -0.2074964485
 H          0.0308622595       -2.7711539197        0.7329989411
 H          3.7641264362       -3.8108169601       -1.0940336371
 H          1.4769455961       -4.4336337163       -0.3989367522
 H          4.5896822372       -1.5243846499       -0.6853986864
 C          3.3174947769        0.4998676528        0.4621602709
 O          2.8372488609        1.3719716044        1.1436742350
 H          4.2488919415        0.6829760034       -0.1034948986
