  56
        -94.14787183
 C         -1.5960317920       -1.1095560480       -2.4465608954
 C         -1.0769826180       -0.4612568366       -3.7193319716
 C         -2.4596861070       -0.1238713533       -1.6415140893
 O         -2.6484241132        1.0314533407       -1.9906705944
 O         -1.6129710769       -3.1693435181       -0.5308728953
 O         -0.1391426793       -5.0042063631        0.8610080063
 N         -0.4817898293       -1.5609407969       -1.6339957290
 C         -0.5707692053       -2.5490319907       -0.7430961871
 C          0.7219705909       -2.8707499691       -0.0047022152
 C          0.8746403941       -4.4068608666        0.1126736712
 N          1.8527188256       -2.2191474319       -0.6464813519
 N         -2.9739388792       -0.6661680164       -0.5313999756
 C         -3.6571476712        0.1029615519        0.4978967526
 C         -4.3677998888       -0.8366745457        1.4552208923
 C         -2.5821724034        0.9383440856        1.2204837909
 O         -2.0950420600        0.6354482912        2.2875280146
 N         -2.2389225304        2.0465203539        0.5230531404
 O          0.1980729435        1.0921380997       -0.3050122508
 O          1.2913290681        2.6664377724        0.8761578870
 C         -1.0610119291        2.7929654652        0.8868663605
 C          0.1881692775        2.0587676020        0.4053182832
 C         -1.1120824510        4.1967082286        0.2900019395
 H         -2.2085123615       -1.9920978818       -2.6730240253
 H         -1.9122960117       -0.1300304506       -4.3293840857
 H         -0.4733560316       -1.1646393245       -4.2866106408
 H         -0.4759090516        0.4077802062       -3.4634276346
 H         -0.9822601419       -4.6561028705        0.5211751286
 H          0.3620852121       -1.0016319761       -1.6092378203
 H          0.6179553847       -2.4619087948        1.0075210798
 H          1.8180941301       -4.6378413617        0.6181486076
 H          0.9127832940       -4.8308503125       -0.9074225777
 H          2.1578431153       -2.7655509190       -1.4467313587
 H          2.6246514507       -2.1646278651        0.0079048936
 H         -2.7462896716       -1.6314918248       -0.3091878897
 H         -4.3629577848        0.7832564636        0.0059023566
 H         -3.6337479876       -1.4334618432        1.9913227720
 H         -5.0413959822       -1.4942004394        0.9119967409
 H         -4.9368147434       -0.2631155406        2.1815136206
 H         -2.5037164064        2.0692604118       -0.4622736820
 H         -1.0138902403        2.8391657570        1.9818571327
 H         -1.9999793154        4.7109460605        0.6473487416
 H         -1.1561614069        4.1367969329       -0.7955063826
 H         -0.2318841070        4.7617330657        0.5830962231
 C          2.5398987814        2.1699849505        0.5216272279
 C          2.9829401858        0.9149359669        0.9499295486
 C          3.3530564289        2.9750056342       -0.2612664181
 C          4.2554061209        0.4912839906        0.5605714380
 C          5.0664174158        1.2918242388       -0.2165618035
 C          4.6156903152        2.5389580939       -0.6229752977
 H          2.9855191305        3.9387502917       -0.5785683263
 H          6.0488128810        0.9510323468       -0.5050333255
 H          5.2449981431        3.1732651607       -1.2284288165
 H          4.5886359981       -0.4776212024        0.9012109223
 C          2.1756223881        0.0441287295        1.8190130581
 O          2.4636591844       -1.0976979428        2.0744124461
 H          1.2764625652        0.5137184019        2.2539900557
