  56
        -94.14786764
 C         -2.7709920908        0.8535902993       -1.9416131322
 C         -2.6812683189        1.0443900263       -3.4501367483
 C         -2.1540633684        2.0473242513       -1.2007880631
 O         -1.7055795718        3.0261246787       -1.7761326555
 O         -3.8156243571       -1.4297353460       -0.6175389843
 O         -2.1454872672       -0.6556202671        1.7280648868
 N         -2.0496023375       -0.3302629529       -1.5133420564
 C         -2.6164606546       -1.3053184587       -0.7861149806
 C         -1.6146764477       -2.2353130227       -0.0817555426
 C         -1.1261021316       -1.4479628362        1.1578915984
 N         -2.2359733629       -3.4772409493        0.3470710736
 N         -2.1179217509        1.9037225443        0.1357790971
 C         -1.3091664066        2.7827758004        0.9702176220
 C         -1.6884996660        2.6160732518        2.4293167276
 C          0.1271437287        2.3316033915        0.6959481334
 O          0.6888662401        1.4515822029        1.3244331293
 N          0.7038905522        2.9046648849       -0.3801178262
 O          0.8001783833        0.1971989679       -1.2579351779
 O          2.7522483195        0.1764960275       -0.1449861328
 C          1.9273267312        2.2899345778       -0.8716000858
 C          1.7411344280        0.7752604790       -0.7680665971
 C          2.1761320045        2.6899000006       -2.3187917603
 H         -3.8139490848        0.7207031874       -1.6306765593
 H         -1.6385972030        1.1051578747       -3.7523898245
 H         -3.1752439031        1.9695327259       -3.7320786942
 H         -3.1542534138        0.2110755913       -3.9618874202
 H         -2.8854458540       -1.2307662420        1.9581064954
 H         -1.0402319444       -0.2773332441       -1.5629470212
 H         -0.7544060777       -2.4526218644       -0.7190134544
 H         -0.3348944302       -0.7494189889        0.8817771366
 H         -0.7312190607       -2.1606404659        1.8910818485
 H         -3.2000853064       -3.2760681229        0.6098225689
 H         -2.2852353781       -4.1313498288       -0.4261855814
 H         -2.3700411047        1.0199454476        0.5695427531
 H         -1.4521029793        3.8112509278        0.6224463100
 H         -1.0874397755        3.2777094506        3.0467236273
 H         -1.5033543877        1.5885890217        2.7330594284
 H         -2.7398517480        2.8496079483        2.5729510610
 H          0.1075368013        3.3917229905       -1.0441434661
 H          2.7656480639        2.5791042653       -0.2268276656
 H          1.3453552471        2.3606981397       -2.9393843548
 H          3.0941597571        2.2365175210       -2.6839649256
 H          2.2653284579        3.7706307475       -2.3913008548
 C          2.6500291085       -1.1941273082        0.0863662208
 C          2.6852772339       -1.6601936706        1.4046846390
 C          2.5254738239       -2.0799391901       -0.9714097679
 C          2.5984705713       -3.0337240678        1.6295546047
 C          2.4631031411       -3.9180838569        0.5780905220
 C          2.4282596531       -3.4393222095       -0.7219107403
 H          2.5018241817       -1.7043248829       -1.9829730624
 H          2.3846479347       -4.9775743298        0.7664440168
 H          2.3260883741       -4.1240928430       -1.5501768884
 H          2.6308242758       -3.3770896081        2.6526847192
 C          2.7882789578       -0.7372507877        2.5514390519
 O          2.9291914348       -1.0982026297        3.6915803064
 H          2.7134357758        0.3280894857        2.2844518192
