  56
        -94.14786712
 C         -2.7723934928        0.8498697258       -1.9398828274
 C         -2.6864532722        1.0379255631       -3.4489652028
 C         -2.1541795496        2.0451822339       -1.2026504514
 O         -1.7056281934        3.0223009506       -1.7807435986
 O         -3.8118000180       -1.4336040198       -0.6108023549
 O         -2.1452533494       -0.6512912477        1.7306578809
 N         -2.0489314280       -0.3325351689       -1.5110165243
 C         -2.6130773717       -1.3071249041       -0.7811023337
 C         -1.6085909573       -2.2334280954       -0.0757365185
 C         -1.1239436139       -1.4438002104        1.1640601970
 N         -2.2253435636       -3.4776331175        0.3529556487
 N         -2.1167080022        1.9047012035        0.1342431568
 C         -1.3064389164        2.7852606195        0.9656044504
 C         -1.6840338275        2.6221472625        2.4255700239
 C          0.1293300222        2.3327839148        0.6907132029
 O          0.6908767722        1.4531883792        1.3199926412
 N          0.7057902916        2.9040287751       -0.3864713673
 O          0.7996409064        0.1963261016       -1.2618481352
 O          2.7516700984        0.1742868160       -0.1488830562
 C          1.9288526103        2.2881057032       -0.8775408102
 C          1.7413497168        0.7737006443       -0.7726375885
 C          2.1779205925        2.6868334667       -2.3250138158
 H         -3.8144715961        0.7168087709       -1.6261276146
 H         -3.1825471718        1.9617387620       -3.7315561885
 H         -3.1593120873        0.2028899109       -3.9580253851
 H         -1.6445851739        1.0997733494       -3.7537328910
 H         -2.8861526626       -1.2262055876        1.9583081959
 H         -1.0397033447       -0.2782878453       -1.5621539089
 H         -0.7470542816       -2.4479206458       -0.7122350056
 H         -0.3325681812       -0.7450036974        0.8890603903
 H         -0.7304019322       -2.1551536976        1.8992568240
 H         -2.2739741317       -4.1310308341       -0.4209603024
 H         -3.1895497379       -3.2798090483        0.6177986626
 H         -2.3687253147        1.0220231658        0.5703538822
 H         -1.4492944835        3.8129977645        0.6156303096
 H         -1.0815530548        3.2845943078        3.0407200610
 H         -1.4994680432        1.5951757772        2.7313954532
 H         -2.7349794318        2.8569816433        2.5700482082
 H          0.1092712823        3.3901498127       -1.0510092182
 H          2.7673148661        2.5772487633       -0.2329523237
 H          3.0956647241        2.2325892320       -2.6898251621
 H          2.2678224519        3.7674545409       -2.3983220808
 H          1.3469504011        2.3576861534       -2.9453731180
 C          2.6461470734       -1.1954809654        0.0861842643
 C          2.6824774006       -1.6579416097        1.4057581423
 C          2.5165109663       -2.0838799306       -0.9688059566
 C          2.5910521462       -3.0304827225        1.6347515073
 C          2.4501792038       -3.9173385494        0.5861182515
 C          2.4147425536       -3.4421817235       -0.7151767069
 H          2.4922935038       -1.7111653443       -1.9814214048
 H          2.3678334354       -4.9759490364        0.7776813883
 H          2.3083447155       -4.1289379701       -1.5412642339
 H          2.6241383816       -3.3710210206        2.6587982431
 C          2.7913123815       -0.7321149681        2.5496136027
 O          2.9333694359       -1.0902256569        3.6904976484
 H          2.7199747741        0.3327294765        2.2796540346
