  56
        -94.14786458
 C         -2.0940247119       -2.1379673945       -1.8000490353
 C         -2.3267753626       -2.0194915687       -3.3012972594
 C         -2.8439791636       -1.0420307632       -1.0357272732
 O         -3.5281060341       -0.1897950396       -1.5740115675
 O         -0.2765913218       -4.0984143768       -0.8025555342
 O         -0.0179397030       -1.6352772574        1.5715435253
 N         -0.6941458853       -1.9721947848       -1.4562302306
 C          0.0588576857       -2.9338484700       -0.8889812707
 C          1.3804892763       -2.4170718448       -0.3009682553
 C          1.1536019110       -2.3262118738        1.2232380998
 N          2.5080884998       -3.2981783878       -0.5470440162
 N         -2.6279654449       -1.0728470563        0.2969403787
 C         -2.9087271681        0.0980211889        1.1163243180
 C         -2.8671145015       -0.2585741629        2.5906692157
 C         -1.8079542974        1.0824571978        0.7166270865
 O         -0.6778055543        1.0390938610        1.1902076014
 N         -2.1178887597        1.9111714130       -0.2877322078
 O          0.3074958906        0.7648350846       -1.3587621140
 O          1.2068032369        2.4974312875       -0.2382616338
 C         -1.0584728356        2.7017819638       -0.9012444155
 C          0.2147496035        1.8554456328       -0.8456618649
 C         -1.4216775982        3.0335902768       -2.3408863021
 H         -2.3955276378       -3.1289643837       -1.4410678955
 H         -1.9645006278       -1.0578595162       -3.6566594288
 H         -3.3896813826       -2.0869197987       -3.5140867556
 H         -1.8024836213       -2.8148801239       -3.8232637237
 H          0.0781599556       -0.6802719839        1.4068802616
 H         -0.3259265298       -1.0316377441       -1.5235222602
 H          1.6124080164       -1.4242506120       -0.6991663017
 H          2.0396291394       -1.8807340746        1.6906366851
 H          1.0231277836       -3.3410593895        1.6099344835
 H          2.7066220178       -3.3289903924       -1.5424207313
 H          2.2433562763       -4.2407611765       -0.2709749725
 H         -1.9105879447       -1.6880948120        0.6711421716
 H         -3.8879173246        0.4901920534        0.8237965649
 H         -3.6284209947       -1.0007745750        2.8143310088
 H         -3.0466872645        0.6290783482        3.1910417349
 H         -1.8904096669       -0.6634152878        2.8428105759
 H         -2.9618997362        1.7421387042       -0.8233026238
 H         -0.8861062427        3.6063969483       -0.3059390298
 H         -1.5534793707        2.1149135689       -2.9087472307
 H         -0.6333508192        3.6239453096       -2.8003681380
 H         -2.3467253898        3.6038164167       -2.3681119730
 C          2.2636169490        1.7328000433        0.2316343222
 C          2.4425419758        1.6704333425        1.6204236065
 C          3.0666827845        0.9953195012       -0.6222932509
 C          3.4449102924        0.8420570597        2.1221026410
 C          4.2500772664        0.1078439573        1.2718950840
 C          4.0630295134        0.1870014815       -0.0987015467
 H          2.9034413862        1.0499281108       -1.6874317256
 H          5.0174687209       -0.5351634080        1.6739615829
 H          4.6821344417       -0.3953714388       -0.7628169212
 H          3.5842768954        0.7814810463        3.1916910502
 C          1.5867060700        2.4367108177        2.5442926278
 O          0.9226376956        3.3992091762        2.2723859348
 H          1.6236905217        2.0404639614        3.5793572833
