  56
        -94.14783764
 C         -2.0269723316        0.4855597879       -2.1005266008
 C         -1.0471669577        0.3038448648       -3.2452950913
 C         -1.7789147191        1.8056055566       -1.3561606876
 O         -0.8458861339        2.5513489058       -1.5783812536
 O         -3.9937966169       -0.4869228008       -0.4214864403
 O         -0.3283598656       -1.2811277260        1.2882012064
 N         -1.8578338245       -0.5843697629       -1.1193352711
 C         -2.8679881341       -0.9673187007       -0.3252488433
 C         -2.6182588036       -2.0299051102        0.7561133416
 C         -1.1559072945       -2.3882757062        1.0340560243
 N         -3.2531395638       -1.6209341537        2.0038217491
 N         -2.6737123801        2.0164628425       -0.3645860335
 C         -2.3125772310        2.7998253898        0.8082595751
 C         -3.5214091228        2.9961801834        1.7048191983
 C         -1.2138345770        1.9664691478        1.4899612459
 O         -1.4693275751        1.0777158752        2.2909162436
 N          0.0263802147        2.2628572900        1.0713358072
 O          0.9635968574        0.2941416484       -0.6262945047
 O          2.4109291618       -0.4358098035        0.9308231427
 C          1.1897464362        1.5000242514        1.4649188439
 C          1.4836005909        0.4001181888        0.4500138802
 C          2.4068728269        2.4159831198        1.5804524434
 H         -3.0674088499        0.4461441375       -2.4429698738
 H         -1.1966756853       -0.6598007850       -3.7252550572
 H         -0.0338368021        0.3678840931       -2.8578934647
 H         -1.1882929992        1.0959273307       -3.9749136253
 H         -0.7788294691       -0.6749029405        1.9035388760
 H         -0.8984608892       -0.7979511561       -0.8794198510
 H         -3.1300653447       -2.9432886114        0.4220263826
 H         -0.7173022649       -2.9083567813        0.1766022485
 H         -1.1521885744       -3.0695307668        1.8968932674
 H         -4.2293783206       -1.4088384765        1.8217050008
 H         -2.8250812264       -0.7638180907        2.3495894556
 H         -3.4155444995        1.3328508553       -0.2404195120
 H         -1.9028776933        3.7583179165        0.4735928110
 H         -3.8552035350        2.0347847564        2.0886818571
 H         -4.3307514427        3.4583991404        1.1462996680
 H         -3.2603513311        3.6311937809        2.5470942038
 H          0.1206542225        2.8035467664        0.2166091418
 H          0.9708031227        1.0247669959        2.4268731930
 H          2.6540435224        2.8307115290        0.6064265628
 H          3.2611218251        1.8496661604        1.9383842680
 H          2.1949414850        3.2253093000        2.2744666311
 C          2.8054176447       -1.4918244587        0.1315047169
 C          3.3906303678       -1.2843986502       -1.1248943498
 C          2.5905629523       -2.7764192147        0.6068250358
 C          3.7324385833       -2.4010462856       -1.8899207386
 C          3.5280323126       -3.6796131302       -1.4119877239
 C          2.9621049244       -3.8666704818       -0.1590354403
 H          2.1224881982       -2.8971798110        1.5704734577
 H          3.8047644239       -4.5319165549       -2.0134441744
 H          2.7978597894       -4.8649844034        0.2171070223
 H          4.1763118222       -2.2483539112       -2.8629507888
 C          3.6888177483        0.0593648978       -1.6438176535
 O          3.7509071998        1.0740349238       -0.9998585134
 H          3.8937590358        0.0632943075       -2.7327072531
