  56
        -94.14782472
 C         -1.6867069515       -3.2229273946       -0.2911652647
 C         -2.4320488522       -3.5458440252       -1.5758324585
 C         -2.4646718315       -2.2078585113        0.5586377694
 O         -3.5102271817       -1.6964189406        0.1930676893
 O          0.5943109673       -3.3959195788        1.3081711271
 O          3.2628353688       -0.1814803132       -0.3536381110
 N         -0.3703891669       -2.6839130989       -0.6023505158
 C          0.6742040430       -2.8196343604        0.2314030319
 C          1.9980333639       -2.2365682314       -0.2561826116
 C          2.0591415896       -0.7374271040        0.0958041262
 N          3.1479133355       -2.8729552065        0.3678595640
 N         -1.8646963042       -1.9353366783        1.7268179892
 C         -2.2397387660       -0.7997725478        2.5578307694
 C         -1.5090932557       -0.8624560107        3.8861028065
 C         -1.8405656717        0.4444559829        1.7460689931
 O         -0.7562789849        0.9855804705        1.8352454460
 N         -2.7926002006        0.8432196314        0.8761513805
 O         -0.8383008691        0.3072514300       -1.1457072269
 O         -0.2745385183        2.4630281316       -0.8085459572
 C         -2.4329811819        1.8200999281       -0.1334640188
 C         -1.0915013394        1.4178207267       -0.7494111363
 C         -3.5021451624        1.8700533099       -1.2170153269
 H         -1.5223776974       -4.1260933383        0.3091218491
 H         -2.5813942188       -2.6351306635       -2.1507669683
 H         -3.4071065762       -3.9608988572       -1.3381383610
 H         -1.8717675070       -4.2616024214       -2.1713017175
 H          3.9620713253       -0.7890620097       -0.0714161937
 H         -0.3291609298       -1.9973516839       -1.3417508357
 H          2.0837481111       -2.3434494408       -1.3425441345
 H          1.9556321491       -0.6171276804        1.1840026168
 H          1.2488161848       -0.1981405216       -0.3939608091
 H          3.2533948870       -3.8242092845        0.0314666352
 H          2.9773119074       -2.9330586401        1.3695120669
 H         -0.9843438236       -2.3938581505        1.9404081067
 H         -3.3271129177       -0.8144016519        2.6944527249
 H         -1.8574654937       -0.0661812958        4.5380186953
 H         -0.4427386987       -0.7271479613        3.7203558183
 H         -1.6821355209       -1.8204012982        4.3695296916
 H         -3.5063311477        0.1615349144        0.6248236028
 H         -2.3034025793        2.7994998048        0.3417597018
 H         -3.2416995120        2.6075320304       -1.9719920134
 H         -4.4584833043        2.1403806746       -0.7770496640
 H         -3.5925359544        0.8932881007       -1.6877906225
 C          0.9954809055        2.3425839486       -1.3698324502
 C          2.1005424372        2.7309562274       -0.6055538259
 C          1.1531088607        1.9195276362       -2.6783310725
 C          3.3619819293        2.7050156247       -1.1963478235
 C          3.5230871027        2.2838653828       -2.5009753611
 C          2.4203564106        1.8834592118       -3.2370446313
 H          0.2886136180        1.6190786531       -3.2513085110
 H          4.5065088924        2.2564434485       -2.9439526208
 H          2.5402151414        1.5435229171       -4.2547908112
 H          4.2052819248        3.0058618439       -0.5942139297
 C          1.9594447858        3.1075548415        0.8119245838
 O          2.8304357266        3.6229191297        1.4654272089
 H          0.9783773903        2.8589497611        1.2510369156
