  56
        -94.14782324
 C          0.0745440171       -3.1690639496       -1.5101493367
 C          0.1521755861       -3.5552160698       -2.9775763371
 C         -1.3537353624       -2.7704273290       -1.1078918028
 O         -2.2245066051       -2.5070893416       -1.9218416134
 O          1.2088588000       -2.4742286353        0.9426428503
 O          3.4963993396       -1.4055649822        2.0579936086
 N          0.9439171036       -2.0314855102       -1.2490031781
 C          1.4255222324       -1.7519557921       -0.0275994857
 C          2.3344945441       -0.5276554296        0.0857231544
 C          3.6581751871       -0.9886977132        0.7383343440
 N          2.6227018246        0.1827306711       -1.1393894284
 N         -1.5236600618       -2.7054676204        0.2202194821
 C         -2.7096910984       -2.1144871427        0.8239515383
 C         -2.7662686537       -2.4573865320        2.3013450980
 C         -2.5840317458       -0.5990891133        0.6001812674
 O         -2.1007929579        0.1602729478        1.4144037083
 N         -3.0131129781       -0.1956097583       -0.6161278663
 O         -0.3854479435        0.6276701407       -1.4329931797
 O         -0.9073866000        2.4445593903       -0.2166189322
 C         -2.7089179753        1.1577166641       -1.0425108424
 C         -1.1983143658        1.3662267034       -0.9310455049
 C         -3.1622374444        1.3685747291       -2.4803624806
 H          0.4141595920       -3.9869492459       -0.8646411559
 H         -0.2542685596       -2.7544000653       -3.5910577972
 H         -0.4401609002       -4.4486422696       -3.1526506157
 H          1.1820690285       -3.7483771963       -3.2664745481
 H          2.7323270855       -2.0071240912        2.0814467245
 H          0.9352446840       -1.2981920070       -1.9444153283
 H          1.8498717093        0.1707307938        0.7795573051
 H          4.3507178518       -0.1436628390        0.7463399882
 H          4.0945453924       -1.7921929929        0.1203273563
 H          1.7720131955        0.5677963635       -1.5349742265
 H          3.0633404453       -0.4301744893       -1.8166341713
 H         -0.7066049048       -2.8057281329        0.8188970340
 H         -3.5861787676       -2.4921741169        0.2857610642
 H         -3.6894538399       -2.0809221519        2.7329080961
 H         -1.9310942559       -1.9875659600        2.8158034038
 H         -2.7193864774       -3.5339450146        2.4421841792
 H         -3.1202106190       -0.9048081164       -1.3389357863
 H         -3.1978311157        1.8616141386       -0.3596524180
 H         -2.9646862399        2.3904632663       -2.7938845019
 H         -4.2288028228        1.1762925116       -2.5598543126
 H         -2.6289193142        0.6850957943       -3.1378559115
 C          0.4314373883        2.7784915586        0.0014626550
 C          0.9227993622        2.8045533257        1.3102337130
 C          1.2444786456        3.1191389616       -1.0663125365
 C          2.2517295360        3.1758095368        1.5138371149
 C          3.0692732743        3.4999185842        0.4495137372
 C          2.5641427039        3.4743903685       -0.8398683961
 H          0.8418259988        3.1041618015       -2.0683027337
 H          4.0986412926        3.7730761152        0.6214073231
 H          3.1953090903        3.7289649210       -1.6768214435
 H          2.6175048888        3.1874961195        2.5296546010
 C          0.0810991117        2.4393157154        2.4693909779
 O          0.4159401280        2.6124052172        3.6131821215
 H         -0.8860046686        1.9814074727        2.2099966386
