  56
        -94.14780640
 C         -1.6733845435       -3.2425613466       -0.2643878361
 C         -2.4148340469       -3.5929715525       -1.5440919367
 C         -2.4573913577       -2.2142838833        0.5641415247
 O         -3.5027729212       -1.7124171605        0.1847253353
 O          0.6013089500       -3.3574500532        1.3518180822
 O          3.2819866659       -0.2205244763       -0.4702412417
 N         -0.3569735511       -2.7087229218       -0.5839619557
 C          0.6858016194       -2.8198625932        0.2555697294
 C          2.0138810282       -2.2636561115       -0.2522052654
 C          2.0725387888       -0.7448697784        0.0018189308
 N          3.1579992745       -2.8580894214        0.4214349834
 N         -1.8648568241       -1.9224954502        1.7310169357
 C         -2.2536515091       -0.7812245196        2.5475887338
 C         -1.5320553267       -0.8254886991        3.8815919479
 C         -1.8579619043        0.4580786442        1.7268723618
 O         -0.7795053889        1.0099307018        1.8210688342
 N         -2.8053481182        0.8392821116        0.8443573695
 O         -0.8283638080        0.3098379161       -1.1626883876
 O         -0.2841301736        2.4695926159       -0.8168244953
 C         -2.4467214190        1.8107306797       -0.1709527329
 C         -1.0941633667        1.4182752348       -0.7691338986
 C         -3.5050074459        1.8371942196       -1.2658714131
 H         -1.5090919444       -4.1333184489        0.3543430773
 H         -2.5667135927       -2.6942030153       -2.1369087322
 H         -3.3888182172       -4.0069888662       -1.3002825809
 H         -1.8508509945       -4.3181570600       -2.1245029234
 H          3.9771789791       -0.8100276483       -0.1431143889
 H         -0.3108005732       -2.0516232167       -1.3490620350
 H          2.1106827756       -2.4404116846       -1.3286553138
 H          1.9577189888       -0.5533992065        1.0787839865
 H          1.2686643814       -0.2376452021       -0.5312713134
 H          3.2647974483       -3.8295780787        0.1495087134
 H          2.9805087659       -2.8520271934        1.4235903392
 H         -0.9820952004       -2.3725776536        1.9544232516
 H         -3.3418818138       -0.8022016093        2.6766397855
 H         -1.8914259226       -0.0259268832        4.5234377859
 H         -0.4656457680       -0.6832644631        3.7221625532
 H         -1.7009146416       -1.7802008905        4.3728113891
 H         -3.5106966535        0.1485848662        0.5936225889
 H         -2.3337239600        2.7960691225        0.2961905954
 H         -4.4694674152        2.0984740722       -0.8383552426
 H         -3.5772567162        0.8552638412       -1.7289491446
 H         -3.2464093963        2.5714407841       -2.0246253922
 C          0.9940764043        2.3582232569       -1.3610658058
 C          2.0889565139        2.7335581072       -0.5758230888
 C          1.1693698522        1.9553481174       -2.6736517237
 C          3.3582953615        2.7155762092       -1.1501580729
 C          3.5367802372        2.3155347727       -2.4590711093
 C          2.4438888536        1.9274549801       -3.2160116220
 H          0.3123273215        1.6636528007       -3.2622256357
 H          4.5260763860        2.2941901168       -2.8889301986
 H          2.5773079798        1.6030884156       -4.2370880575
 H          4.1937031965        3.0061960542       -0.5320649487
 C          1.9292754974        3.0893132338        0.8450815910
 O          2.7972433094        3.5810954696        1.5208445149
 H          0.9380175993        2.8480892395        1.2644287756
