  56
        -94.14778275
 C         -0.4189330952       -3.3507655230       -0.8309907818
 C         -0.9055452972       -3.9167204679       -2.1542662761
 C         -1.5878460860       -2.8530087130        0.0330189134
 O         -2.7157686698       -2.6880383813       -0.4027249302
 O          1.5762785280       -2.4199816612        0.8803488881
 O          4.1138563292       -1.3409836176        0.8465028509
 N          0.4673499243       -2.2206509692       -1.0689017488
 C          1.3827719355       -1.8178970945       -0.1737049337
 C          2.2406087725       -0.6130979258       -0.5603114888
 C          3.7211470628       -1.0476062943       -0.4575655107
 N          1.9991169006       -0.0307954772       -1.8607810214
 N         -1.2239250265       -2.5824356441        1.2951973398
 C         -2.0799818387       -1.8357502375        2.2062105557
 C         -1.5233771881       -1.9051458138        3.6163772336
 C         -2.0916048078       -0.3948249061        1.6728157064
 O         -1.3114198856        0.4612677951        2.0374839672
 N         -3.0165148299       -0.1788779618        0.7118011893
 O         -0.9527971539        0.3845907326       -1.1984978248
 O         -1.0462904641        2.4374770646       -0.2927208871
 C         -2.9539833161        1.0663233761       -0.0299860823
 C         -1.5368399869        1.2382791331       -0.5752827385
 C         -3.9517781731        1.0426581136       -1.1800197441
 H          0.1542562149       -4.0945955608       -0.2660122374
 H         -0.0631002101       -4.1888370781       -2.7848305643
 H         -1.5200659743       -3.1796666557       -2.6660516480
 H         -1.5145614413       -4.7976889812       -1.9734672776
 H          3.4253387145       -1.9053017477        1.2387890924
 H          0.1729924457       -1.5720840465       -1.7861728665
 H          2.0682948563        0.1607648947        0.1987733105
 H          4.3470728496       -0.2239027149       -0.8091277312
 H          3.8792866555       -1.9145867920       -1.1224020224
 H          1.0472660865        0.3133181877       -1.9278617763
 H          2.1616979444       -0.7110220006       -2.5951747552
 H         -0.2366069473       -2.6353861879        1.5366295254
 H         -3.0897174636       -2.2569061754        2.1469657061
 H         -1.3930767823       -2.9401182090        3.9210845255
 H         -2.2025385545       -1.4128844498        4.3068569935
 H         -0.5646204845       -1.3929278676        3.6541296376
 H         -3.3993342139       -0.9928810507        0.2351177519
 H         -3.1533568208        1.8977823778        0.6556715637
 H         -4.9542206757        0.8846529360       -0.7913487592
 H         -3.7052036323        0.2332035906       -1.8640458191
 H         -3.9290805393        1.9853100601       -1.7208421333
 C          0.2355544070        2.7629337064       -0.7460781929
 C          1.2680882989        2.9480082485        0.1769996163
 C          0.4588229455        2.9344456637       -2.1020141534
 C          2.5280121283        3.3099290093       -0.2994028745
 C          2.7561329271        3.4729968406       -1.6508746314
 C          1.7204443973        3.2872744135       -2.5517534405
 H         -0.3551780442        2.7891409948       -2.7969966556
 H          3.7383167844        3.7438057630       -2.0053908869
 H          1.8899306045        3.4142414785       -3.6097809757
 H          3.3163438277        3.4462324929        0.4256961472
 C          1.0632164509        2.7586561580        1.6288643459
 O          1.8836525576        3.0554614252        2.4589278538
 H          0.0955293107        2.3106111491        1.9034842884
