  56
        -94.14777578
 C          1.7117757130        1.4279253689        0.0565690635
 C          2.9678335587        2.2958884116        0.2035814681
 C          2.0718974897        0.0220848231       -0.4307257690
 O          1.7186315296       -0.3918128194       -1.5177232586
 O         -0.3075630423        3.3300852178        0.5291635229
 O         -2.3056216463        4.8920334499       -0.4432209114
 N          0.8120780957        2.0069081983       -0.9102475406
 C         -0.1242190336        2.9056190768       -0.6032189069
 C         -0.9606862375        3.3658693071       -1.8009738776
 C         -1.4656435729        4.8070049678       -1.5559320712
 N         -0.2059928372        3.1917345717       -3.0305109555
 N          2.8492342575       -0.6746033976        0.4147466768
 C          3.2685281374       -2.0419844900        0.1492129602
 C          4.6795016156       -2.2744453058        0.6648933189
 C          2.2506635376       -2.9503441831        0.8628017465
 O          2.4490766670       -3.4158765927        1.9655445591
 N          1.1130204908       -3.1163873407        0.1669858702
 O         -2.3102956451       -2.8519579824        1.0427440405
 O         -0.5787322991       -1.4139739810        1.1068443168
 C         -0.0622437154       -3.7059056844        0.7622376472
 C         -1.1342642035       -2.6435262289        0.9624380309
 C         -0.6165171300       -4.8456273672       -0.0865171154
 H          1.1872576885        1.3716463466        1.0185543585
 H          3.6469850588        1.8838135151        0.9443706076
 H          2.6742518281        3.2945204567        0.5173887705
 H          3.4859488475        2.3636935769       -0.7503333570
 H         -1.8007067907        4.5203979203        0.3024666355
 H          0.8646392988        1.6499435476       -1.8579552310
 H         -1.8345535349        2.7041829945       -1.8427408989
 H         -2.0490688883        5.1449102983       -2.4190834888
 H         -0.5937952678        5.4731801092       -1.4440735202
 H          0.5560894127        3.8618270438       -3.0689203823
 H         -0.7992859201        3.3577407542       -3.8357608761
 H          3.0054573411       -0.3375202786        1.3518754473
 H          3.2082463222       -2.1851042929       -0.9336192015
 H          4.6829320879       -2.2387275563        1.7518846144
 H          5.3586441626       -1.5224096050        0.2714987670
 H          5.0230858203       -3.2581824048        0.3587112438
 H          0.9626098441       -2.6169106714       -0.7007079011
 H          0.2399899721       -4.0745366110        1.7523300139
 H          0.1159125309       -5.6439997921       -0.1627656515
 H         -0.8530022487       -4.4745227285       -1.0803116859
 H         -1.5254028926       -5.2278029448        0.3683389030
 C         -1.4249224828       -0.3291414309        0.9700899704
 C         -2.1307732924       -0.1348061421       -0.2271730138
 C         -1.5439954395        0.5716899613        2.0146604752
 C         -2.9949677540        0.9588657347       -0.3148757359
 C         -3.1242926129        1.8502703769        0.7306356768
 C         -2.3821351894        1.6659392323        1.8878469256
 H         -0.9808438797        0.4023306576        2.9194978979
 H         -3.7832611056        2.6994546717        0.6401335874
 H         -2.4634865395        2.3716270751        2.6992764879
 H         -3.5674274886        1.0953286529       -1.2216853180
 C         -1.9528550755       -1.0111341783       -1.3866299463
 O         -1.2046104085       -1.9549641495       -1.4686270291
 H         -2.5800719018       -0.7174281460       -2.2501671659
