  56
        -94.14776825
 C         -2.1429831315        0.0654842603        0.6169843849
 C         -3.5671723930        0.2451760274        1.1574144467
 C         -1.5861444925        1.3907411813        0.0899896181
 O         -1.3336776250        1.5592869571       -1.0869822775
 O         -1.8573563082       -2.7301146289        0.7727510933
 O         -1.7196863714       -5.1284345666       -0.4947805816
 N         -2.1364218684       -0.8754443400       -0.4757435705
 C         -1.9936921823       -2.1919082734       -0.3170904926
 C         -2.0131471993       -2.9815407652       -1.6294695165
 C         -2.5425002421       -4.4105168660       -1.3657519658
 N         -2.7479755587       -2.2428585286       -2.6424872791
 N         -1.4621053117        2.3487397325        1.0235032256
 C         -0.9168638016        3.6651382821        0.7306956916
 C         -1.6398911955        4.7314137083        1.5378057476
 C          0.5776609341        3.5999503530        1.0943202596
 O          1.0065016885        3.9699453450        2.1673195012
 N          1.3312689870        3.0403907606        0.1327305859
 O          3.7887833377        0.4917524146        0.1575239550
 O          1.6290084677        0.5646693962        0.7901566388
 C          2.6979885684        2.6429546341        0.3726624731
 C          2.8007119425        1.1240692408        0.3957095751
 C          3.6460654924        3.2095486435       -0.6791988999
 H         -1.4943159171       -0.3286895894        1.4091545761
 H         -3.5861364805        0.9343981436        1.9966958676
 H         -3.9447927613       -0.7186421250        1.4896714194
 H         -4.2165223208        0.6272814256        0.3729657018
 H         -1.6421898758       -4.5843954841        0.3096321451
 H         -2.1790600949       -0.4911483350       -1.4131309635
 H         -0.9701314406       -3.0630997566       -1.9591278443
 H         -2.5735809360       -4.9714822174       -2.3059304639
 H         -3.5694250058       -4.3395628637       -0.9698878612
 H         -3.7378769880       -2.2328577761       -2.4161028545
 H         -2.6464147908       -2.6882729633       -3.5476307697
 H         -1.5626701144        2.1187892892        1.9998696118
 H         -1.0384825904        3.8240574756       -0.3447074355
 H         -1.3056719521        5.7162448894        1.2247595991
 H         -1.4046990291        4.6143184145        2.5932055268
 H         -2.7144688379        4.6577188189        1.3916538745
 H          0.9017495386        2.6528027216       -0.6980582544
 H          2.9619202184        3.0172790006        1.3715124402
 H          3.6372489099        4.2950280878       -0.6429768458
 H          3.3322950887        2.8772950657       -1.6653279588
 H          4.6527188899        2.8474154259       -0.4933458345
 C          1.4712289544       -0.7868383324        0.5450856835
 C          1.5375406821       -1.2751415796       -0.7689337153
 C          1.2207916033       -1.6418375247        1.6048229204
 C          1.3976950940       -2.6500390441       -0.9708848400
 C          1.1615842711       -3.5050395038        0.0863189250
 C          1.0534481387       -2.9959929367        1.3720786524
 H          1.1645604989       -1.2363429304        2.6032897308
 H          1.0394834740       -4.5624391432       -0.0885966113
 H          0.8479156631       -3.6573097334        2.1987745558
 H          1.4809396053       -3.0366768419       -1.9769836108
 C          1.7032202161       -0.3879200564       -1.9218045600
 O          1.7865393607        0.8162761085       -1.8987348933
 H          1.7296647872       -0.9322048527       -2.8852728315
