  56
        -94.14776200
 C         -1.2112985403       -3.1003114695        1.0147013201
 C         -1.5998197890       -4.2820055355        0.1426428088
 C         -2.2814478633       -1.9936532110        0.9690306473
 O         -3.1798112726       -1.9670328580        0.1413487325
 O          0.5614684685       -1.4262652799        2.4530905318
 O          2.9819171705       -3.6957732179        0.6195627989
 N          0.0573000423       -2.5547926762        0.5647005772
 C          0.8444608433       -1.7796396062        1.3167964198
 C          2.1772192730       -1.4067632156        0.6804356687
 C          3.2282303759       -2.4291950979        1.1623877129
 N          2.1141471991       -1.4949136199       -0.7735429297
 N         -2.1190249100       -1.0801228030        1.9344550933
 C         -2.9017569509        0.1445895622        2.0015384017
 C         -2.6891904718        0.8162264605        3.3464065583
 C         -2.4139628472        1.0277221757        0.8467085514
 O         -1.5460346931        1.8708447031        0.9590054684
 N         -3.0051452692        0.7483880533       -0.3366698480
 O         -0.4474037667       -0.0307601163       -1.2852150120
 O         -0.1968670817        2.1564404244       -1.7233210482
 C         -2.4175635200        1.3362143942       -1.5259639238
 C         -0.9171279018        1.0608878357       -1.4868611443
 C         -3.0262264805        0.7175540220       -2.7769553691
 H         -1.0847716620       -3.4085510321        2.0603179712
 H         -1.7845327159       -3.9437097304       -0.8742361982
 H         -2.5133279696       -4.7328785767        0.5197781902
 H         -0.8078658035       -5.0263277394        0.1424611796
 H          2.7656804817       -3.5546224529       -0.3136574687
 H          0.3307737602       -2.7200062130       -0.3924016194
 H          2.4527522474       -0.4107162594        1.0626263803
 H          3.1922628806       -2.5252555277        2.2488301151
 H          4.2290289674       -2.0730921872        0.8701751778
 H          2.9751154958       -1.1366814958       -1.1756412702
 H          1.3507154932       -0.9198281450       -1.1196470824
 H         -1.2417227856       -1.0965372693        2.4603981627
 H         -3.9546047607       -0.1140505686        1.8393306994
 H         -2.9313330641        0.1300237900        4.1533791484
 H         -3.3195694317        1.6976981541        3.4248624619
 H         -1.6505342038        1.1256874487        3.4353787626
 H         -3.4485719206       -0.1653405808       -0.4297839154
 H         -2.5677877427        2.4216161014       -1.5013024657
 H         -2.8268347080       -0.3519474074       -2.7908276391
 H         -2.6033904548        1.1716812465       -3.6695945203
 H         -4.1011274233        0.8770041569       -2.7767386257
 C          1.1909692323        2.0311762041       -1.7376986046
 C          1.9541884599        2.6522126525       -0.7451960338
 C          1.8032698647        1.3144558659       -2.7542158473
 C          3.3435784268        2.5461036516       -0.8094245071
 C          3.9567092747        1.8308615812       -1.8192502222
 C          3.1846137106        1.2144570070       -2.7920876591
 H          1.1956197527        0.8383244828       -3.5092814745
 H          5.0327298637        1.7521627765       -1.8521414524
 H          3.6545364583        0.6533939615       -3.5859067456
 H          3.9191045410        3.0357537538       -0.0379417854
 C          1.3314137204        3.3978739702        0.3707046707
 O          1.9623900636        4.0570455607        1.1564559603
 H          0.2385168017        3.2929749176        0.4406077259
