  56
        -94.15243100
 C         -1.3660815474       -2.7171941101       -1.3516770401
 C         -1.7269482268       -2.6440866637       -2.8301783292
 C         -2.4146979114       -2.0033165716       -0.4909351113
 O         -3.3978444777       -1.4457745139       -0.9462871865
 O          1.1226810012       -3.8752030766       -0.5393528394
 O          0.5682258999       -1.5832089823        1.9543592269
 N         -0.1083133315       -2.0508221958       -1.0706842015
 C          0.9828986753       -2.6687640160       -0.5826164590
 C          2.0397332923       -1.7050665368       -0.0197136497
 C          1.8876013771       -1.7748823126        1.5150367076
 N          3.4020252046       -2.0735249660       -0.3624002379
 N         -2.1174031186       -2.0017907005        0.8251296338
 C         -2.7785577407       -1.0779081252        1.7357437529
 C         -2.5332418932       -1.4870959361        3.1765952892
 C         -2.1579944126        0.2792236346        1.3966029849
 O         -1.1015004381        0.6682600519        1.8787710111
 N         -2.7920009921        0.9729523659        0.4394793581
 O         -0.2127064400        0.8140063851       -0.8022353360
 O          0.1406224203        2.7008819505        0.3534842349
 C         -2.1159190944        2.1288668131       -0.1333844650
 C         -0.6323731441        1.7897924773       -0.2267748050
 C         -2.6517984525        2.4289156277       -1.5254203380
 H         -1.2555842340       -3.7601152822       -1.0325422330
 H         -2.7020576133       -3.0940598447       -2.9925983892
 H         -0.9830256179       -3.1700892171       -3.4217347466
 H         -1.7692111006       -1.6052876958       -3.1485940086
 H          0.3022350005       -0.6508537172        1.8700047410
 H         -0.1280973336       -1.0396444675       -1.1036397417
 H          1.8506523684       -0.6836556973       -0.3661346021
 H          2.5765306496       -1.0571018917        1.9747909117
 H          2.1626026662       -2.7832297400        1.8379410401
 H          3.5399864830       -1.9782029017       -1.3638563044
 H          3.5304194293       -3.0580588203       -0.1403924948
 H         -1.2004722665       -2.3151883768        1.1316200362
 H         -3.8462825137       -1.0712812949        1.4939857755
 H         -3.0166424475       -0.7840019684        3.8493756881
 H         -1.4652740076       -1.4918788364        3.3786841065
 H         -2.9333456675       -2.4816219420        3.3531258945
 H         -3.4937286148        0.5014088845       -0.1216591857
 H         -2.2294323520        2.9896668779        0.5356130682
 H         -2.5706601475        1.5400707754       -2.1474046670
 H         -2.0673885925        3.2241099963       -1.9807155089
 H         -3.6934542305        2.7336220798       -1.4683604571
 C          1.5029646654        2.4330841297        0.3393940915
 C          2.2342750482        2.4811405548       -0.8548182272
 C          2.1071967875        2.0660029165        1.5301967648
 C          3.5884258789        2.1420800266       -0.8136427434
 C          4.1941175192        1.7807896275        0.3728210626
 C          3.4549429917        1.7498275276        1.5462605901
 H          1.5017291848        2.0173574242        2.4220360118
 H          5.2387481393        1.5128021486        0.3858775262
 H          3.9258138237        1.4637874905        2.4742669568
 H          4.1589707195        2.1663456977       -1.7304960122
 C          1.6174157877        2.8671518443       -2.1308495708
 O          0.5106152493        3.3169130033       -2.2848295967
 H          2.2914809489        2.7113922803       -2.9965293879
