  56
        -94.14775438
 C          1.6778670094        1.4744311022        0.0649120444
 C          2.9225491563        2.3590841711        0.2096859329
 C          2.0536023525        0.0791327755       -0.4414539646
 O          1.6909595586       -0.3298379091       -1.5271232671
 O         -0.3685195172        3.3375767537        0.5782149634
 O         -2.4029009642        4.8753411651       -0.3583270433
 N          0.7610895679        2.0515459504       -0.8869452310
 C         -0.1861910563        2.9320270635       -0.5611842905
 C         -1.0370224913        3.3968305588       -1.7469969161
 C         -1.5661636224        4.8244958799       -1.4756112139
 N         -0.2859357211        3.2559612327       -2.9830324920
 N          2.8552886172       -0.6117198889        0.3859008795
 C          3.2958670405       -1.9688292869        0.1028950631
 C          4.7244800907       -2.1739336975        0.5806594306
 C          2.3160434257       -2.8987078315        0.8413034681
 O          2.5424515245       -3.3396461035        1.9488462408
 N          1.1762506125       -3.1120529770        0.1624877538
 O         -2.2461335493       -2.9244141106        1.0422783044
 O         -0.5505581361       -1.4440890283        1.1046492220
 C          0.0250283065       -3.7242364764        0.7818895090
 C         -1.0750909289       -2.6880594638        0.9673265495
 C         -0.5021520997       -4.8979293592       -0.0370337794
 H          1.1631847434        1.4000184343        1.0309441669
 H          3.6132523475        1.9512483571        0.9420641858
 H          2.6170709605        3.3508432479        0.5338161797
 H          3.4324129579        2.4420999043       -0.7474950503
 H         -1.8873686053        4.5025614277        0.3794162178
 H          0.8123440199        1.7089617563       -1.8399066268
 H         -1.8993015944        2.7205521458       -1.7953652294
 H         -2.1592147362        5.1665797045       -2.3305038013
 H         -0.7059371302        5.5041780409       -1.3557308124
 H          0.4656744934        3.9381964695       -3.0132344687
 H         -0.8859346268        3.4273332446       -3.7821946678
 H          3.0199345865       -0.2801073909        1.3235824599
 H          3.2098653014       -2.1086799782       -0.9785221358
 H          5.3769292667       -1.4048977861        0.1751582512
 H          5.0812818022       -3.1480345991        0.2590549511
 H          4.7547653912       -2.1445691595        1.6674612953
 H          0.9981973778       -2.6294612215       -0.7095058911
 H          0.3471120429       -4.0616025570        1.7768115885
 H          0.2521225841       -5.6767961765       -0.1008990771
 H         -0.7556638367       -4.5561162553       -1.0371228488
 H         -1.3968419704       -5.2954058098        0.4326168141
 C         -1.4201665486       -0.3809614365        0.9474773487
 C         -2.1139980661       -0.2134872322       -0.2608749675
 C         -1.5739483597        0.5259551247        1.9822085512
 C         -3.0007925341        0.8599551916       -0.3704205468
 C         -3.1657040890        1.7564755547        0.6658307608
 C         -2.4358257106        1.5989593128        1.8348190008
 H         -1.0189746775        0.3778659240        2.8957327271
 H         -3.8423467362        2.5899285369        0.5598555327
 H         -2.5449859220        2.3092416755        2.6388861612
 H         -3.5621938197        0.9756074724       -1.2870437277
 C         -1.9030175618       -1.0968519856       -1.4092654175
 O         -1.1387796213       -2.0294586775       -1.4709421340
 H         -2.5213515678       -0.8215902965       -2.2850482401
