  56
        -94.14769418
 C         -0.8602777566       -0.7151934606       -2.0282426836
 C          0.5470705461       -0.8599557053       -2.5923379662
 C         -1.1412479110        0.7104291066       -1.5382120378
 O         -0.3313826958        1.6206804242       -1.5968451406
 O         -2.5051750254       -3.0077373653       -1.8855935224
 O         -3.6810039697       -1.1397523472        0.7027309620
 N         -1.0706481486       -1.5796357106       -0.8834008858
 C         -1.9530548359       -2.5990281267       -0.8833427598
 C         -2.2762186065       -3.1573536862        0.5076151849
 C         -3.6377026851       -2.5309108219        0.8890898138
 N         -2.4136046306       -4.6013282764        0.5309840411
 N         -2.3706456745        0.8453620850       -1.0020165201
 C         -2.7163792351        1.9781094868       -0.1532376665
 C         -4.2163625127        2.0345282256        0.0695953989
 C         -1.9283541132        1.6974282026        1.1339636566
 O         -2.3139615951        0.9169917849        1.9851541819
 N         -0.7250763297        2.3031149500        1.1767530583
 O          0.9141821842       -0.2368120572        0.9090403009
 O          2.1336327840        1.6128745870        0.5322879035
 C          0.3342682652        1.8129084321        2.0460096878
 C          1.1756465201        0.9151830397        1.1430898173
 C          1.1251897871        2.9470974138        2.6745530102
 H         -1.6060753460       -1.0021584347       -2.7793285214
 H          0.7222733665       -0.1009496388       -3.3492365801
 H          0.6712283542       -1.8452173092       -3.0328108919
 H          1.2752427323       -0.7342357622       -1.7950709409
 H         -3.1840638841       -0.6769435612        1.4021772145
 H         -0.5555867108       -1.3392623916       -0.0464636324
 H         -1.5102675939       -2.8582829261        1.2307624701
 H         -3.8863667944       -2.8107554426        1.9179730184
 H         -4.3977324699       -2.9448829362        0.2201212470
 H         -1.5136811189       -5.0387989898        0.3604520774
 H         -3.0295169556       -4.8777677821       -0.2295527045
 H         -2.9247767589        0.0109624957       -0.8226098185
 H         -2.3492087873        2.8903184588       -0.6345017050
 H         -4.5529606682        1.1118415133        0.5344044542
 H         -4.7291069359        2.1616361358       -0.8798914953
 H         -4.4620701450        2.8684482379        0.7214069305
 H         -0.4136977938        2.7982927543        0.3499456551
 H         -0.1435760458        1.1866582748        2.8066436841
 H          0.4806331806        3.5242574522        3.3319236969
 H          1.5290542537        3.6018383140        1.9068306197
 H          1.9475510968        2.5337731995        3.2515781648
 C          3.0259364703        0.9498652571       -0.2890629824
 C          3.8849314933       -0.0291404331        0.2297589367
 C          3.0673145475        1.2986938267       -1.6293299467
 C          4.7765023185       -0.6546143026       -0.6441853021
 C          4.8243628737       -0.3045142620       -1.9785896312
 C          3.9730641480        0.6750723428       -2.4697163183
 H          2.3691604109        2.0354524844       -1.9941371485
 H          5.5215412185       -0.7953111611       -2.6400038879
 H          4.0054522910        0.9456657395       -3.5137680007
 H          5.4386060924       -1.4146945090       -0.2557699605
 C          3.8915706108       -0.3860951722        1.6543216463
 O          3.2909256329        0.1764165885        2.5351012051
 H          4.5436857918       -1.2531059766        1.8773844319
