  56
        -94.14769115
 C         -0.5065212144       -3.5937234363       -0.3293025190
 C         -0.5765033921       -4.8816743393       -1.1311853023
 C         -1.8818995247       -2.9101684505       -0.2216475973
 O         -2.8018619260       -3.1478518852       -0.9748576264
 O          1.0538035195       -1.5463219997        0.8636492904
 O          3.7957487047        0.1756004888       -2.0309661845
 N          0.3518547991       -2.6286667785       -0.9919568944
 C          0.9638718482       -1.6261188608       -0.3571699734
 C          1.6070341223       -0.6124721593       -1.2945569344
 C          3.1220767763       -0.8543179911       -1.3539961535
 N          1.0230525715       -0.7183043747       -2.6222650906
 N         -1.9360680069       -1.9902855614        0.7658657405
 C         -2.9185671266       -0.9291297887        0.7207803290
 C         -3.5106769927       -0.6722152310        2.1020720229
 C         -2.2389153495        0.2834634408        0.0798128234
 O         -1.2743894080        0.1595141573       -0.6565275203
 N         -2.7707549542        1.4906775964        0.3233996612
 O         -0.0851441400        2.6072098320       -1.5117440288
 O         -0.1638827786        2.3056992438        0.7302027731
 C         -2.2171402622        2.6593137473       -0.3353248784
 C         -0.7010271471        2.4729101549       -0.4920991547
 C         -2.8678038379        2.8960811001       -1.6951265400
 H         -0.0958293476       -3.7633293482        0.6717419313
 H          0.4227233294       -5.2612958456       -1.3268765343
 H         -1.0866153832       -4.6963122216       -2.0731878013
 H         -1.1412919963       -5.6281500341       -0.5798887833
 H          3.5946225217        1.0138729609       -1.5963047465
 H          0.2721551216       -2.5150573643       -1.9973024317
 H          1.4484205236        0.3781189463       -0.8401475353
 H          3.3254392166       -1.7658966337       -1.9196360552
 H          3.5046297839       -0.9681394641       -0.3302970751
 H          1.6027694820       -0.2048430359       -3.2794537804
 H          0.1094393056       -0.2737609783       -2.6061953591
 H         -1.0783945677       -1.7563613364        1.2528474350
 H         -3.6982095364       -1.2719547343        0.0248897342
 H         -4.3985696770       -0.0472884008        2.0425544738
 H         -2.7685890609       -0.2027076128        2.7409756723
 H         -3.7996885880       -1.6240630699        2.5408206506
 H         -3.5366463121        1.6028876795        0.9643062565
 H         -2.3637744806        3.5227285276        0.3233999321
 H         -2.7052884213        2.0287726341       -2.3292521201
 H         -2.4184244331        3.7607049925       -2.1745524323
 H         -3.9358212105        3.0615713034       -1.5794257579
 C          1.1893290069        2.1091068859        0.8968912069
 C          1.6051422691        1.1131987699        1.7960397187
 C          2.1286916856        2.8915271707        0.2360800055
 C          2.9710911585        0.9201532448        1.9935047797
 C          3.9044585651        1.6841837562        1.3209607272
 C          3.4800387099        2.6709880814        0.4439754973
 H          1.8003680191        3.6580031930       -0.4476214044
 H          4.9591214420        1.5152245615        1.4753336736
 H          4.2031762299        3.2783561489       -0.0799915502
 H          3.2889499661        0.1460970001        2.6756113731
 C          0.6509656333        0.2439050221        2.5005638609
 O         -0.5522733137        0.3223095445        2.4608481238
 H          1.1489003974       -0.4985313745        3.1485297897
