  56
        -94.14769091
 C         -0.8631971797       -0.7124829305       -2.0315255285
 C          0.5428422793       -0.8501851909       -2.6006085001
 C         -1.1488686658        0.7113930526       -1.5392551727
 O         -0.3429680418        1.6251009498       -1.5991363841
 O         -2.4958096971       -3.0139329293       -1.8849261740
 O         -3.6701760017       -1.1526767319        0.7097981289
 N         -1.0654431869       -1.5788352953       -0.8866842974
 C         -1.9422926063       -2.6029476922       -0.8843845718
 C         -2.2571902096       -3.1639554645        0.5074015905
 C         -3.6196041235       -2.5436742333        0.8957398709
 N         -2.3884063067       -4.6085249233        0.5296233986
 N         -2.3773460168        0.8404474502       -0.9996002176
 C         -2.7264459934        1.9714649921       -0.1499234724
 C         -4.2260692254        2.0199896452        0.0771442785
 C         -1.9337239660        1.6952059165        1.1353559513
 O         -2.3142253633        0.9148210860        1.9888263243
 N         -0.7324804607        2.3053432114        1.1736912190
 O          0.9103734462       -0.2298959312        0.9066915719
 O          2.1313520525        1.6185078926        0.5294617282
 C          0.3305200048        1.8208021661        2.0416286019
 C          1.1723585705        0.9221456318        1.1401682573
 C          1.1196082937        2.9592043936        2.6647693116
 H         -1.6102485261       -1.0022569599       -2.7802702913
 H          0.7111763211       -0.0909081272       -3.3587844931
 H          0.6706257070       -1.8351443293       -3.0407078702
 H          1.2732772397       -0.7198656701       -1.8061696115
 H         -3.1740410454       -0.6875301283        1.4081505679
 H         -0.5495446464       -1.3360041481       -0.0509620261
 H         -1.4892047222       -2.8624895540        1.2273827602
 H         -3.8621227057       -2.8247954540        1.9257263500
 H         -4.3809238031       -2.9610691931        0.2303849691
 H         -1.4872840103       -5.0419643294        0.3551563046
 H         -3.0059558924       -4.8866548825       -0.2289817662
 H         -2.9271031811        0.0034202268       -0.8191662664
 H         -2.3653241562        2.8855287358       -0.6322602454
 H         -4.7422342234        2.1427122689       -0.8710614632
 H         -4.4744882293        2.8536206674        0.7282946611
 H         -4.5561921586        1.0962196840        0.5444841543
 H         -0.4249273279        2.7990776965        0.3445402289
 H         -0.1438098949        1.1956907229        2.8054150046
 H          1.9434531049        2.5499785459        3.2425970485
 H          0.4744442513        3.5375919992        3.3204891163
 H          1.5212249582        3.6117239186        1.8939940196
 C          3.0245444681        0.9538585053       -0.2895504774
 C          3.8806686917       -0.0264681839        0.2315327220
 C          3.0697314473        1.3022025228       -1.6298278057
 C          4.7735047390       -0.6534813224       -0.6399874203
 C          4.8253507431       -0.3036631474       -1.9742974347
 C          3.9766228538        0.6769860927       -2.4678119749
 H          2.3739113559        2.0402031485       -1.9965996345
 H          5.5237727337       -0.7953239694       -2.6337504114
 H          4.0124455895        0.9477093477       -3.5117182389
 H          5.4333399285       -1.4145845977       -0.2497351265
 C          3.8831597756       -0.3832456638        1.6561945912
 O          3.2836307916        0.1822922258        2.5357456352
 H          4.5306326884       -1.2533625170        1.8805478551
