  56
        -94.14768991
 C          3.0655235963       -0.6707528073       -0.9064601191
 C          3.6548335323       -1.0101233268       -2.2658453095
 C          2.1932037228       -1.8341718106       -0.3907894384
 O          1.8710599833       -2.7732049052       -1.1006771875
 O          2.2555189466        1.0641032471        1.1956768318
 O          1.1944167091        3.4843194861        1.9334513614
 N          2.2991000398        0.5583995586       -1.0036243591
 C          2.0145470707        1.3531694886        0.0268778860
 C          1.3559421757        2.6746028428       -0.3703276522
 C          1.7070900072        3.7665858883        0.6662018842
 N          1.7142484842        3.0096911442       -1.7403454795
 N          1.8695325090       -1.7261895851        0.9010181824
 C          1.1530255829       -2.7568589482        1.6350539218
 C          1.4525750755       -2.6244047635        3.1189469810
 C         -0.3639406565       -2.6558499438        1.3665176103
 O         -1.1730079156       -2.3656981038        2.2215147275
 N         -0.6776276913       -2.9470172438        0.0903495978
 O         -3.5347811147       -0.8771638308       -0.6052544770
 O         -1.4208054252       -0.4860392113        0.0567805675
 C         -2.0077419104       -2.7356753833       -0.4267469523
 C         -2.4320233919       -1.2710999781       -0.3471672557
 C         -2.0952782905       -3.1941041388       -1.8781614039
 H          3.8597871364       -0.5053653364       -0.1655845080
 H          4.2586859102       -0.1860015446       -2.6372858965
 H          2.8536145289       -1.2215340692       -2.9696305930
 H          4.2750189232       -1.8982035029       -2.1857633096
 H          1.5313826949        2.6050433161        2.1768458469
 H          2.0068373233        0.8745362562       -1.9192534731
 H          0.2737793297        2.5119003345       -0.3335233000
 H          1.2659605450        4.7191802878        0.3546016800
 H          2.8031246325        3.8849493196        0.7005620295
 H          2.6806695614        3.3206497810       -1.7802576638
 H          1.1360540762        3.7700149669       -2.0795006884
 H          2.0600670354       -0.8500904025        1.3815453401
 H          1.4944448206       -3.7262752049        1.2496546889
 H          2.5214743103       -2.6999573382        3.3016888677
 H          0.9385489278       -3.4086017309        3.6669214807
 H          1.0909776002       -1.6657502746        3.4825643418
 H          0.0762797369       -3.0768957335       -0.5799256674
 H         -2.7248174718       -3.2893933836        0.1953285090
 H         -3.1070993008       -3.0490335468       -2.2458424137
 H         -1.8318060646       -4.2457070616       -1.9532306043
 H         -1.4150465019       -2.6077933256       -2.4920495048
 C         -1.6832367470        0.8567480093        0.2437460062
 C         -2.0859788468        1.6709445878       -0.8235826313
 C         -1.5511062965        1.3736834140        1.5231420681
 C         -2.3798364914        3.0107529543       -0.5597284199
 C         -2.2307643755        3.5298724942        0.7110638774
 C         -1.8056030855        2.7145198703        1.7508858186
 H         -1.2537552051        0.7095111922        2.3192742787
 H         -2.4458820681        4.5706832268        0.8973219690
 H         -1.6790588250        3.1225165477        2.7405221566
 H         -2.7054742330        3.6414773209       -1.3744729699
 C         -2.1524597983        1.1619967801       -2.1996730554
 O         -1.5586884276        0.2049757259       -2.6272721079
 H         -2.7920170537        1.7781450178       -2.8616912203
