  56
        -94.14768580
 C          2.8329420437       -1.2294201428       -1.2121290540
 C          3.2583332855       -1.6735518255       -2.6020835758
 C          1.8109134260       -2.2197982630       -0.6166483071
 O          1.2574486325       -3.0730058833       -1.2912388618
 O          2.4918342108        0.6266124604        0.9093465557
 O          1.9819600732        3.2057123350        1.6742663074
 N          2.2794611698        0.1109277001       -1.2773524905
 C          2.2067072578        0.9456147263       -0.2417436766
 C          1.7369331620        2.3535120802       -0.6089799719
 C          2.3785788226        3.3844722437        0.3482109501
 N          1.9942757520        2.6066458180       -2.0186605377
 N          1.6277886589       -2.0693148067        0.6985014948
 C          0.7982609293       -2.9581094933        1.4962092300
 C          1.2505120499       -2.9098070833        2.9462103076
 C         -0.6899055329       -2.5678862944        1.3689782910
 O         -1.3477736219       -2.1451740235        2.2956002293
 N         -1.1678889824       -2.7673729809        0.1269396602
 O         -3.6865995307       -0.2204778140       -0.1098982007
 O         -1.4571926673       -0.2089864490        0.1912611183
 C         -2.4791091830       -2.3032262325       -0.2592120600
 C         -2.6378929351       -0.7987118629       -0.0550974510
 C         -2.7483425101       -2.6261467719       -1.7249860235
 H          3.6940302458       -1.1963652613       -0.5309058576
 H          3.7288097500       -2.6510239996       -2.5470733547
 H          3.9608909618       -0.9638960384       -3.0316568790
 H          2.3846900750       -1.7561403160       -3.2438407165
 H          2.1818716941        2.2804294278        1.8991901671
 H          1.9657971102        0.4651457355       -2.1718925447
 H          0.6533144802        2.3749961774       -0.4517038187
 H          2.0642532122        4.3931074897        0.0598847603
 H          3.4758654735        3.3213262899        0.2522487603
 H          2.9863979808        2.7676148531       -2.1671262848
 H          1.5019614973        3.4383450637       -2.3237255280
 H          2.0094201160       -1.2439133526        1.1538873501
 H          0.9139516160       -3.9675792957        1.0811729538
 H          1.1131896819       -1.9061132707        3.3409179729
 H          2.2973140392       -3.1905489727        3.0300369082
 H          0.6476255471       -3.5907725571        3.5397150045
 H         -0.5197003463       -3.0317830588       -0.6103656631
 H         -3.2342074200       -2.7770755944        0.3831956826
 H         -3.7513826977       -2.3049231198       -1.9910917816
 H         -2.6568531195       -3.6960229039       -1.8930479605
 H         -2.0369369298       -2.0993533694       -2.3571115331
 C         -1.4582487815        1.1453078299        0.4622460737
 C         -1.8707802312        2.0758079606       -0.5014349944
 C         -1.0498549747        1.5576342622        1.7209543722
 C         -1.8821932385        3.4285094581       -0.1528018751
 C         -1.4554025600        3.8407286636        1.0936870276
 C         -1.0301852383        2.9065769621        2.0280090757
 H         -0.7587784938        0.8076076853        2.4393660411
 H         -1.4534308810        4.8903017262        1.3436346206
 H         -0.6902041796        3.2297759852        2.9984594074
 H         -2.2115568314        4.1511249548       -0.8856765007
 C         -2.2372988510        1.6657513480       -1.8629708480
 O         -1.9033634386        0.6441525853       -2.4074294461
 H         -2.8450818657        2.4228982865       -2.3964669082
