  56
        -94.14768553
 C         -0.3782942806       -3.3843368545        0.6044146263
 C         -0.7461326728       -4.8608310493        0.5191396819
 C         -1.5544641842       -2.5178848830        0.1341960768
 O         -1.6475269510       -2.1322709846       -1.0233079327
 O          1.0175136674       -1.0182640410        0.6244984090
 O          0.4315303795       -2.5542541637       -2.9239047216
 N          0.7665008181       -3.0978277961       -0.2325280762
 C          1.2566229910       -1.8290901984       -0.2517001625
 C          2.1511111439       -1.5421465539       -1.4537448913
 C          1.2674250851       -1.4426282455       -2.7247733128
 N          2.9077509812       -0.3122931235       -1.3314627306
 N         -2.4781656856       -2.2508546345        1.0640673601
 C         -3.6347644294       -1.4093370815        0.7956962984
 C         -4.7768065521       -1.7747896013        1.7284057652
 C         -3.2077297839        0.0633821377        0.9901407028
 O         -3.4901099990        0.6979674976        1.9823681810
 N         -2.4834480269        0.5359065328       -0.0391831959
 O          0.1723916403        1.2641854946       -1.1491581132
 O          0.2566449479        2.1069355140        0.9365793874
 C         -1.8794836148        1.8528986267       -0.0222086151
 C         -0.3688353754        1.7042433135       -0.1711441577
 C         -2.4007022556        2.7151127144       -1.1702226010
 H         -0.1165769604       -3.1034662407        1.6310366878
 H          0.1036979014       -5.4712196061        0.8137312091
 H         -1.0248253305       -5.1156591296       -0.5013447840
 H         -1.5840322962       -5.0826489880        1.1750335608
 H         -0.3916738047       -2.4142740304       -2.4207707180
 H          0.8164346859       -3.6032268019       -1.1100977547
 H          2.8525260643       -2.3783700787       -1.5695986853
 H          1.9341695201       -1.3803740345       -3.5882955237
 H          0.6897319027       -0.5156881127       -2.6615809976
 H          3.3868433908       -0.2958262968       -0.4358843282
 H          2.2502241471        0.4636599083       -1.3271303347
 H         -2.2992052661       -2.4708617477        2.0316671759
 H         -3.9099041722       -1.5703172649       -0.2519925467
 H         -5.6671119180       -1.2191205187        1.4491808814
 H         -4.5187980297       -1.5033872597        2.7494447013
 H         -4.9907704726       -2.8393365823        1.6735562671
 H         -2.2154458852       -0.0832351964       -0.7946068325
 H         -2.1082889743        2.3017187250        0.9486199522
 H         -2.1886682181        2.2285933883       -2.1195242929
 H         -1.9006572038        3.6793937088       -1.1567608765
 H         -3.4727824307        2.8598081947       -1.0686268977
 C          1.6384526411        2.1242646029        0.9607760461
 C          2.3739200463        2.8989397560        0.0521312771
 C          2.2814522709        1.3592949068        1.9212091326
 C          3.7683330227        2.8527846918        0.1178268899
 C          4.4085877998        2.0897016688        1.0723457808
 C          3.6633398281        1.3499273199        1.9801131474
 H          1.6841449428        0.7655402528        2.5931200066
 H          5.4868201239        2.0666363256        1.1112209995
 H          4.1613453173        0.7520376055        2.7284605909
 H          4.3415925883        3.4361582441       -0.5873224698
 C          1.7335968562        3.7812333577       -0.9319476524
 O          0.5789231812        4.1258047640       -0.9407514524
 H          2.4416226387        4.1544749263       -1.6977607094
