  56
        -94.14768470
 C         -0.8661291972       -0.7087403826       -2.0366485970
 C          0.5367881296       -0.8385065235       -2.6152164218
 C         -1.1565380036        0.7130572257       -1.5412318469
 O         -0.3550403076        1.6305536506       -1.6022377601
 O         -2.4784398066       -3.0243404262       -1.8836388664
 O         -3.6544259092       -1.1676330819        0.7158216777
 N         -1.0564902970       -1.5768796472       -0.8911137725
 C         -1.9247601834       -2.6082008236       -0.8853216395
 C         -2.2301909074       -3.1705651928        0.5079968676
 C         -3.5946110949       -2.5582466797        0.9020734038
 N         -2.3529481007       -4.6158560921        0.5311703533
 N         -2.3838457455        0.8352275745       -0.9974467106
 C         -2.7372242164        1.9641597717       -0.1468315424
 C         -4.2365496656        2.0033207203        0.0840751086
 C         -1.9398934036        1.6934233586        1.1367809408
 O         -2.3147475985        0.9129586914        1.9926066829
 N         -0.7415199757        2.3094821733        1.1710590104
 O          0.9043070161       -0.2207587693        0.9077918877
 O          2.1271522883        1.6255909740        0.5273089390
 C          0.3253417430        1.8323960282        2.0383605883
 C          1.1671422979        0.9315708537        1.1391086986
 C          1.1125303438        2.9763347896        2.6536337822
 H         -1.6163744225       -1.0019689077       -2.7808566137
 H          0.6961463452       -0.0771533142       -3.3732661302
 H          0.6664725618       -1.8220870558       -3.0578368408
 H          1.2719700241       -0.7058272841       -1.8255791669
 H         -3.1604314752       -0.6990111966        1.4132829338
 H         -0.5401508710       -1.3295416566       -0.0569580152
 H         -1.4608662420       -2.8643650623        1.2245236047
 H         -3.8308764909       -2.8404288652        1.9332001885
 H         -4.3562976537       -2.9805501429        0.2402212239
 H         -1.4499869247       -5.0440484910        0.3532657786
 H         -2.9717035965       -4.8977278978       -0.2250842441
 H         -2.9280745719       -0.0050471823       -0.8153319514
 H         -2.3829928431        2.8803596505       -0.6302299164
 H         -4.7560250290        2.1203169924       -0.8630492596
 H         -4.4888584221        2.8367784336        0.7339344756
 H         -4.5591510109        1.0784467357        0.5544947526
 H         -0.4379652239        2.8021864884        0.3397821612
 H         -0.1450386859        1.2095916751        2.8064776262
 H          1.5094473732        3.6266179256        1.8785403060
 H          1.9395873064        2.5726126011        3.2307241414
 H          0.4675872824        3.5556520933        3.3087655453
 C          3.0195528802        0.9572676049       -0.2896064327
 C          3.8733172166       -0.0235924098        0.2343500921
 C          3.0657742427        1.3018125364       -1.6308202378
 C          4.7643800908       -0.6555493149       -0.6353935657
 C          4.8169068694       -0.3099045668       -1.9707821457
 C          3.9710235219        0.6717994150       -2.4670400696
 H          2.3718859956        2.0405643140       -1.9997739209
 H          5.5135147457       -0.8057764890       -2.6289910554
 H          4.0071610939        0.9390857187       -3.5118105849
 H          5.4222052462       -1.4172691119       -0.2429643600
 C          3.8752937068       -0.3757724827        1.6601665692
 O          3.2758615761        0.1929329363        2.5377325404
 H          4.5220711383       -1.2456556278        1.8874480745
