  56
        -94.15638494
 C         -0.8913717275       -0.9520039756       -2.7038512142
 C          0.4216118616       -1.0141820995       -3.4799606898
 C         -1.0565646701        0.4230701484       -2.0310630604
 O         -0.2942584540        1.3439876785       -2.2380819547
 O         -0.0156534811       -0.8183169266       -0.0115103921
 O         -2.2659674109       -2.8271047504        1.7449358822
 N         -0.9594890428       -1.9935867846       -1.6960103346
 C         -0.4138250655       -1.8744145689       -0.4734899993
 C         -0.3470841539       -3.1942746038        0.2949800582
 C         -0.8767423740       -3.0192085614        1.7381331320
 N         -1.0769115199       -4.2308986874       -0.4285907023
 N         -2.1971274459        0.5237416273       -1.3157652250
 C         -2.3949120000        1.5639991411       -0.3220190078
 C         -3.8517617967        2.0103520402       -0.3007021249
 C         -2.0038873380        0.9265650102        1.0206549247
 O         -2.5812643291       -0.0773319468        1.4134131153
 N         -1.0273858629        1.5512045393        1.6848998788
 O          1.4837864989       -0.7294618424        2.5682709238
 O          1.4596060290        1.1237678198        1.2561377048
 C         -0.2981967283        0.9132059844        2.7609440503
 C          0.9834623570        0.2920820859        2.1865358961
 C          0.0698331206        1.9313172715        3.8380433666
 H         -1.7391980441       -1.0942798105       -3.3859547566
 H          0.4516392433       -0.2111251021       -4.2101946858
 H          0.5179144664       -1.9709465534       -3.9876872804
 H          1.2544834058       -0.8835155525       -2.7931398935
 H         -2.4588849308       -1.8800601119        1.6333829894
 H         -1.1478090794       -2.9496981807       -1.9794414877
 H          0.7157161840       -3.4572021905        0.3469704372
 H         -0.3359553872       -2.2050957152        2.2254934749
 H         -0.6879564624       -3.9467923461        2.2905811084
 H         -2.0575816889       -4.1429960703       -0.1627106199
 H         -0.7750333288       -5.1468485398       -0.1131765001
 H         -2.6986632980       -0.3300641475       -1.1067231851
 H         -1.7268634414        2.3899870674       -0.5752383374
 H         -4.4843547029        1.1849839255        0.0191650618
 H         -4.1598320872        2.3352750791       -1.2910124609
 H         -3.9741382086        2.8339858945        0.3972214214
 H         -0.5016968627        2.2729499083        1.1922616885
 H         -0.9204071256        0.1137703766        3.1750785331
 H          0.6431928845        1.4495584899        4.6255790144
 H         -0.8333544493        2.3575629081        4.2666840059
 H          0.6641411124        2.7302880118        3.4009418619
 C          2.2778106014        0.7822446704        0.2180935010
 C          2.2060206347        1.6306267351       -0.9037954352
 C          3.1227792711       -0.3182487713        0.2156510040
 C          3.0025251729        1.3386998006       -2.0098908265
 C          3.8409360669        0.2417800202       -2.0129805843
 C          3.8947468058       -0.5857055325       -0.9013165608
 H          3.1551596684       -0.9665986837        1.0759041284
 H          4.4470569431        0.0241370708       -2.8794854606
 H          4.5440563240       -1.4487408572       -0.9014179661
 H          2.9397471674        1.9787341469       -2.8771591713
 C          1.2986442827        2.7816402001       -0.9683129405
 O          0.5664749914        3.1876305754       -0.0946746994
 H          1.3666138961        3.3212501168       -1.9283757857
