  56
        -94.14767938
 C          0.9421888436        2.5603599646       -1.4324967965
 C          1.2429923050        2.6480410945       -2.9204519445
 C          1.8888202860        1.5522100814       -0.7448694269
 O          2.7190669681        0.9071559350       -1.3669739673
 O         -0.6182783666        2.8976866910        0.8960851051
 O         -3.1067950588        3.2586119122        1.9870029080
 N         -0.4627587148        2.2346175095       -1.2472319209
 C         -1.1539920994        2.4708680982       -0.1266391334
 C         -2.6611972314        2.1952450763       -0.1801077701
 C         -3.3897003378        3.2995258086        0.6216064330
 N         -3.2613236373        2.0934897113       -1.4899280704
 N          1.7453297779        1.5100261768        0.5824188438
 C          2.6346987291        0.7844944946        1.4761424944
 C          2.3969313147        1.2476078907        2.9036094714
 C          2.3986385598       -0.7318189381        1.3528647440
 O          1.7420091022       -1.3787953386        2.1461681456
 N          3.0071324614       -1.2837988600        0.2896680951
 O          1.0705890832       -4.1158219964        0.9267594865
 O          0.5325835593       -2.2046965884       -0.1680933541
 C          2.8190020677       -2.6973175192        0.0282518587
 C          1.3865337883       -3.1011127477        0.3798468067
 C          3.1093739689       -3.0111357991       -1.4349557991
 H          1.1189186862        3.5294568812       -0.9442369861
 H          0.6362716489        3.4198092329       -3.3874420980
 H          1.0382267374        1.6919626365       -3.3967678568
 H          2.2931994587        2.8813744300       -3.0689105447
 H         -2.1393976963        3.2847881999        2.0753513181
 H         -0.9245059560        1.7936684413       -2.0328465685
 H         -2.8245846693        1.2446572622        0.3465615096
 H         -4.4658182359        3.1502344151        0.5108935439
 H         -3.1271809952        4.2800879410        0.1921855441
 H         -2.9016346825        1.3089786578       -2.0236399758
 H         -3.1256751910        2.9454622089       -2.0216409684
 H          0.9983175294        2.0608484253        1.0075578502
 H          3.6682789492        0.9858312956        1.1627738437
 H          3.1097834469        0.7703176189        3.5701018513
 H          1.3950706576        0.9638909147        3.2166734721
 H          2.5069367879        2.3264773792        2.9768225373
 H          3.2920638035       -0.6711212111       -0.4733026540
 H          3.4786852137       -3.2821472933        0.6831760700
 H          4.1479785283       -2.7827899030       -1.6606664710
 H          2.4712403470       -2.4120778099       -2.0802563476
 H          2.9297315224       -4.0643842624       -1.6342652283
 C         -0.8030496384       -2.1505530811        0.1363143033
 C         -1.6169687574       -1.4664702180       -0.7868251030
 C         -1.3445784917       -2.6316397176        1.3186557752
 C         -2.9762779734       -1.2999011965       -0.5030598202
 C         -3.5140689175       -1.8009635757        0.6634350299
 C         -2.6947158750       -2.4574139489        1.5717460936
 H         -0.7090566487       -3.1229822311        2.0364352386
 H         -4.5644639099       -1.6725344099        0.8730680043
 H         -3.1082321304       -2.8341873453        2.4946747012
 H         -3.5941545331       -0.7824714537       -1.2217402876
 C         -1.0359742268       -0.9169379803       -2.0019017947
 O         -1.5581881790       -0.0811907696       -2.7115826604
 H         -0.0297285023       -1.2968118168       -2.2435440703
