  56
        -94.14767925
 C          2.1790860849       -1.9548616129        0.7974677160
 C          3.2374468885       -3.0518120672        0.8368133440
 C          1.1282191330       -2.3269670412       -0.2539858454
 O          1.3268168918       -2.2152935483       -1.4507383299
 O          0.8778426795        0.3569170310       -0.1080092021
 O          1.3325797193        3.2634009303       -0.9585244777
 N          2.7931281131       -0.6897926607        0.4464756861
 C          2.0906663438        0.3804593946        0.0289994636
 C          2.9510655615        1.6384842997       -0.0989885170
 C          2.5147384098        2.5773305212       -1.2434931245
 N          2.8960102860        2.3842902253        1.1538796393
 N          0.0203637039       -2.8824081770        0.2624623211
 C         -1.0554093281       -3.4031704786       -0.5629915835
 C         -1.8023949175       -4.4926244441        0.1896862258
 C         -2.0133762358       -2.2651199452       -0.9729755299
 O         -3.1590748396       -2.1901792209       -0.5827944764
 N         -1.4438260770       -1.3878004937       -1.8196529679
 O         -0.8826736776        1.8464633572       -1.9563785993
 O         -1.9845108256        0.9184255917       -0.2194122203
 C         -2.1385430365       -0.2003156047       -2.2744916813
 C         -1.5884117250        0.9926166300       -1.4925859157
 C         -1.9551260504       -0.0029332481       -3.7720253205
 H          1.6934546855       -1.8577634073        1.7777057045
 H          4.0148029418       -2.8031847924        1.5564145709
 H          3.6830832294       -3.1687661562       -0.1488260796
 H          2.7839878775       -3.9954720803        1.1283636367
 H          0.5752043363        2.6986348361       -1.1872333771
 H          3.7975870667       -0.6335430854        0.5023413501
 H          3.9933191736        1.3406028589       -0.2811234643
 H          2.4407011291        2.0019688483       -2.1734890726
 H          3.2922214391        3.3393897970       -1.3555161296
 H          2.1101704404        3.0286170054        1.0992354192
 H          2.7415875989        1.7671338002        1.9443092662
 H         -0.1562912818       -2.8159792659        1.2548455089
 H         -0.5927512253       -3.7998763352       -1.4750999185
 H         -2.2891564293       -4.0698962879        1.0654417522
 H         -1.1188664797       -5.2793327568        0.4986929581
 H         -2.5711358835       -4.9173086495       -0.4491114045
 H         -0.4515971699       -1.4655268275       -2.0218680812
 H         -3.1924406343       -0.3411865544       -2.0044139231
 H         -2.5035997290        0.8743528375       -4.1029686499
 H         -2.3181363687       -0.8750852825       -4.3083816438
 H         -0.9018861415        0.1442049639       -3.9975686048
 C         -1.4197781768        1.7293325871        0.7493072242
 C         -0.8925342453        1.0951168198        1.8849958419
 C         -1.3506115633        3.1056053316        0.6197483619
 C         -0.2760486046        1.8684931184        2.8661538276
 C         -0.2048899616        3.2421168015        2.7348075599
 C         -0.7460403827        3.8564227068        1.6160730888
 H         -1.7498200187        3.5869788553       -0.2586195606
 H          0.2777431257        3.8344092885        3.4973736080
 H         -0.6854602483        4.9277631126        1.5047079517
 H          0.1392135325        1.3648235714        3.7269354335
 C         -0.9384436408       -0.3621690194        1.9752309834
 O         -0.2475470924       -1.0461058716        2.6979479084
 H         -1.6763882056       -0.8222837504        1.2983877916
