  56
        -94.14767165
 C         -2.7942855317       -0.3107824311       -1.6674988353
 C         -2.7085200229       -0.1564565840       -3.1773118465
 C         -2.6186828254        1.0472966224       -0.9671922346
 O         -2.4626124898        2.0908147204       -1.5851212252
 O         -2.8748456769       -1.8699581094        0.6683489558
 O         -2.5328173933       -4.7274085149        0.5554583064
 N         -1.7954970359       -1.2566624734       -1.2089621420
 C         -1.9322588797       -1.9988756416       -0.1072912654
 C         -0.8293749924       -3.0315309321        0.0933083480
 C         -1.3372955967       -4.1542986027        1.0232429742
 N         -0.3744127985       -3.4941293238       -1.2120401463
 N         -2.6771051435        0.9639750298        0.3652912816
 C         -2.4432477108        2.0882911357        1.2597486530
 C         -2.8822839919        1.7216995625        2.6659994416
 C         -0.9393190227        2.4105869468        1.2072269965
 O         -0.1423260620        2.0653913834        2.0555855514
 N         -0.5912074436        3.1101473720        0.1048116063
 O          0.7884027681        0.8402365931       -0.7398427501
 O          2.6835059023        1.8032322390        0.0093029161
 C          0.8100918341        3.2108032316       -0.2344282250
 C          1.3914554669        1.8024443592       -0.3496532341
 C          0.9814427910        3.9471764643       -1.5578532713
 H         -3.7756031106       -0.7063063913       -1.3696337333
 H         -3.4629338353        0.5470440427       -3.5173756629
 H         -2.8627036268       -1.1144115179       -3.6667545463
 H         -1.7314633423        0.2353691984       -3.4494670402
 H         -3.2162224544       -4.0485554463        0.6393233336
 H         -0.9563001994       -1.3834033880       -1.7564670350
 H          0.0024353271       -2.5250426963        0.5951200850
 H         -1.4627165354       -3.7491805378        2.0338463467
 H         -0.6008916453       -4.9617127224        1.0562121980
 H          0.4735264642       -4.0407291986       -1.1061902496
 H         -1.0820177554       -4.1125853384       -1.6014769701
 H         -2.8089349522        0.0497343439        0.7911839291
 H         -3.0000255130        2.9535424899        0.8779091186
 H         -2.7706358446        2.5792477782        3.3237047647
 H         -2.2553329962        0.9173697497        3.0434592316
 H         -3.9209639451        1.4017846833        2.6684060372
 H         -1.2562113720        3.1046477047       -0.6712584570
 H          1.3408741448        3.7272665192        0.5737525218
 H          0.4629039482        3.4090449498       -2.3484997736
 H          2.0351216691        4.0283389841       -1.8113455976
 H          0.5592817757        4.9452647782       -1.4768109533
 C          3.4024487437        0.6160759139       -0.0336064266
 C          2.9968346556       -0.5188065559        0.6737243085
 C          4.5528168327        0.5910203902       -0.8075235944
 C          3.7594065111       -1.6821382071        0.5579779636
 C          4.9059926890       -1.7082618361       -0.2093164790
 C          5.3085859989       -0.5656333669       -0.8842419856
 H          4.8427851472        1.4823791474       -1.3420043397
 H          5.4888132538       -2.6135729968       -0.2822261928
 H          6.2074698716       -0.5760064277       -1.4816251148
 H          3.4286932000       -2.5549385347        1.1011969409
 C          1.8175121172       -0.5253405612        1.5594046948
 O          1.2700688922       -1.5391227167        1.9196057278
 H          1.4688737995        0.4617842253        1.9023999237
