  56
        -94.14764382
 C          3.0282990024       -0.3080062698       -0.9995506156
 C          3.5549082808       -0.6016103876       -2.3949054575
 C          2.3395710691       -1.5560012415       -0.4101540756
 O          2.1177334916       -2.5543590047       -1.0765541781
 O          2.1758635073        1.3686208389        1.1355347848
 O          0.8434286243        3.6427004562        1.9207386960
 N          2.1209182994        0.8240262190       -1.0544010363
 C          1.8259354932        1.6062762116       -0.0173467073
 C          1.0044184350        2.8422852823       -0.3835846357
 C          1.2758767764        3.9729802284        0.6348986753
 N          1.2548690945        3.2045409266       -1.7703506625
 N          2.0567392138       -1.4463973127        0.8909352257
 C          1.5106050330       -2.5343095337        1.6867710710
 C          1.8405261718       -2.3065125852        3.1524188380
 C         -0.0145813268       -2.6437280067        1.4736888493
 O         -0.8264116916       -2.4351382727        2.3495585834
 N         -0.3277159864       -3.0188056701        0.2189841915
 O         -3.3509917597       -1.3007935953       -0.7126232538
 O         -1.3615541885       -0.6692739965        0.1271035935
 C         -1.6857357980       -2.9889558109       -0.2635722449
 C         -2.2463821776       -1.5691314712       -0.3287417425
 C         -1.7804675826       -3.6329345673       -1.6414153514
 H          3.8485742366       -0.0390253572       -0.3195852847
 H          4.0416717550        0.2762092346       -2.8123699813
 H          2.7330351559       -0.9038367356       -3.0392814135
 H          4.2684904682       -1.4194020062       -2.3535446672
 H          1.2954903732        2.8154701504        2.1583748814
 H          1.7299684701        1.0827002625       -1.9509171655
 H         -0.0492292874        2.5595415620       -0.2936849068
 H          0.7218396698        4.8698574986        0.3388064807
 H          2.3526922779        4.2099332035        0.6280526118
 H          2.1827672060        3.6079633287       -1.8619724533
 H          0.5877662379        3.9035287196       -2.0769216482
 H          2.1668365640       -0.5408355151        1.3414857665
 H          1.9640122158       -3.4648463843        1.3211489162
 H          1.4554227415       -3.1303942954        3.7460698529
 H          1.3665147274       -1.3909372560        3.4974516289
 H          2.9155517410       -2.2324858656        3.2954748025
 H          0.4166866395       -3.0698324097       -0.4731308590
 H         -2.3238905571       -3.5220861770        0.4558306021
 H         -2.8069249609       -3.5883366110       -1.9940591274
 H         -1.4601428832       -4.6700175046       -1.5922176289
 H         -1.1465647323       -3.0953247862       -2.3433074552
 C         -1.7738345912        0.6436184980        0.2434932519
 C         -2.2195457555        1.3665306522       -0.8705886505
 C         -1.7561037304        1.2186999051        1.5049965424
 C         -2.6843064492        2.6684199697       -0.6733284152
 C         -2.6517158578        3.2470303520        0.5804611611
 C         -2.1740590097        2.5276606206        1.6673651026
 H         -1.4158028570        0.6241160346        2.3381067240
 H         -2.9976796645        4.2601107415        0.7159141858
 H         -2.1349525789        2.9841104481        2.6431878473
 H         -3.0463963800        3.2258756645       -1.5251149849
 C         -2.1461866379        0.8088473460       -2.2285016149
 O         -1.3686236832       -0.0337338767       -2.5977135267
 H         -2.8628768143        1.2733971246       -2.9331810395
