  56
        -94.14762968
 C         -0.9910120809       -1.3380002903       -2.8309487603
 C          0.3621946346       -1.7467602141       -3.4051019962
 C         -0.9340061893        0.1181735681       -2.3166835429
 O         -0.0539932581        0.8876873017       -2.6391112308
 O          0.2774335147       -1.7250138484       -0.3507377129
 O         -0.5001883253       -1.8464478381        2.2663776959
 N         -1.4125851927       -2.2314292570       -1.7651585508
 C         -0.7721752322       -2.2972343243       -0.5835821302
 C         -1.5277523552       -3.1380310329        0.4490969632
 C         -0.7716956073       -3.1362783203        1.7958900458
 N         -2.8844193731       -2.6046013269        0.4954187707
 N         -2.0005546074        0.4522823638       -1.5662258531
 C         -2.0867323188        1.6751626052       -0.7908741985
 C         -3.4433575415        2.3438422251       -0.9976290932
 C         -1.9175943561        1.2645682535        0.6795583997
 O         -2.5262548597        0.3075449974        1.1259374325
 N         -1.0876391202        2.0353226236        1.4009568704
 O          1.7607105432        0.7864245569        3.1454300550
 O          1.0038279489        0.8197454811        1.0149434979
 C         -0.4965034575        1.5539605389        2.6340115497
 C          0.9022430056        0.9952530755        2.3363899554
 C         -0.4201145400        2.6461386579        3.6933568114
 H         -1.7544093081       -1.3774238202       -3.6158180497
 H          0.3064540333       -2.7448029516       -3.8319329719
 H          1.1095769643       -1.7297274646       -2.6167496761
 H          0.6543317764       -1.0364477863       -4.1724610355
 H         -0.0059813139       -1.4083470039        1.5557062620
 H         -2.3190888955       -2.6712672916       -1.8104530994
 H         -1.5790885009       -4.1737897594        0.0857800780
 H          0.1599110450       -3.7096068362        1.6715832081
 H         -1.3828638215       -3.6251559040        2.5604101221
 H         -2.8502833314       -1.6531800300        0.8646719062
 H         -3.4431310005       -3.1448051554        1.1488281549
 H         -2.6224106608       -0.2778820602       -1.2419057375
 H         -1.2720432398        2.3271737048       -1.1129346088
 H         -3.5999178020        2.5559737035       -2.0521568055
 H         -3.4844838350        3.2751087390       -0.4395108421
 H         -4.2365277191        1.6883671536       -0.6438786585
 H         -0.5155580976        2.6953379595        0.8840626704
 H         -1.1090934917        0.7131092731        2.9854447118
 H          0.1159980718        2.2680224156        4.5588580732
 H         -1.4185534553        2.9518837315        3.9922884969
 H          0.1126227281        3.5101691484        3.3023396779
 C          2.1114264417        0.3646815433        0.3463625133
 C          2.3875011928        0.9926811077       -0.8796980226
 C          2.8716991081       -0.7045317678        0.7891377248
 C          3.4135557726        0.4763962682       -1.6695350764
 C          4.1606884969       -0.6023752087       -1.2400193763
 C          3.8984805597       -1.1805552809       -0.0068569514
 H          2.6482687380       -1.1612888323        1.7400412082
 H          4.9505776499       -0.9949455282       -1.8626063054
 H          4.4880885440       -2.0188387210        0.3326741421
 H          3.6174069924        0.9373397909       -2.6246592510
 C          1.6694883170        2.1955204997       -1.3172321718
 O          0.9088686737        2.8596501039       -0.6498300603
 H          1.9486278413        2.5195218927       -2.3338034204
