  56
        -94.14760603
 C          2.1327651745       -0.8925492243        1.8934917819
 C          3.4611772343       -1.3932467555        2.4442027195
 C          1.6804264986       -1.8115807169        0.7478791350
 O          2.2923212498       -1.8710190793       -0.3055389993
 O          0.4519114673        0.2713467398        0.1011942044
 O          2.8868988142        4.3914821852       -0.0780123615
 N          2.2908336935        0.4503036403        1.3584210407
 C          1.4085190532        0.9370882414        0.4759123846
 C          1.6494698599        2.3326393108       -0.0971511668
 C          2.8195982034        3.1209881339        0.5069901287
 N          1.8742833428        2.2764371737       -1.5387033040
 N          0.6405532396       -2.6032369751        1.0490703632
 C          0.0991788219       -3.5680258463        0.1084911523
 C         -0.5617069488       -4.7089254728        0.8663961562
 C         -0.9077547331       -2.8960517338       -0.8499305488
 O         -2.0899789645       -3.1672592761       -0.8612424135
 N         -0.3285026990       -2.0148201209       -1.6858264510
 O         -0.7203128522        1.1640724208       -2.4917224960
 O         -2.1093809878        0.1552098196       -1.0274047642
 C         -1.0982893462       -1.2289975916       -2.6291294298
 C         -1.2688686532        0.1834957459       -2.0665429067
 C         -0.4148317039       -1.1958113064       -3.9887395998
 H          1.3666694290       -0.8769688997        2.6787508216
 H          3.8316868643       -0.7212047037        3.2155115637
 H          4.1906190262       -1.4580438626        1.6396340300
 H          3.3326540906       -2.3818081756        2.8767773793
 H          2.7188996142        4.2605527983       -1.0237994837
 H          3.0937973510        0.9817838384        1.6491376709
 H          0.7266737609        2.9058230772        0.0633293726
 H          3.7640787659        2.5801164038        0.3271731805
 H          2.6848723663        3.2760186062        1.5808349797
 H          1.0200151440        2.0075713607       -2.0188385604
 H          2.5780515724        1.5750781429       -1.7529643371
 H          0.0720512956       -2.3872362478        1.8565728616
 H          0.9426809965       -3.9306922634       -0.4917034641
 H          0.1466767458       -5.1729898229        1.5477280289
 H         -0.9244017170       -5.4535559682        0.1640388866
 H         -1.4132823971       -4.3343267414        1.4293136634
 H          0.6444327265       -1.7676592287       -1.5440953120
 H         -2.0877294405       -1.7002854798       -2.6793686253
 H         -1.0144050267       -0.6279962057       -4.6945801579
 H         -0.2841108251       -2.2072067991       -4.3630270718
 H          0.5582656542       -0.7185699381       -3.9023120911
 C         -2.1875479793        1.2334891279       -0.1665050138
 C         -1.9711666877        0.9818134195        1.1970711611
 C         -2.4329395041        2.5217711738       -0.6105193044
 C         -1.9981508950        2.0463214947        2.0943045458
 C         -2.2536244926        3.3303280628        1.6519641837
 C         -2.4708318721        3.5641515347        0.3031533316
 H         -2.5818290012        2.7084964483       -1.6622150900
 H         -2.2757228294        4.1505064521        2.3531895984
 H         -2.6618167785        4.5672172022       -0.0470999762
 H         -1.8157899750        1.8390510515        3.1383140745
 C         -1.6401084444       -0.3780417854        1.6287675770
 O         -1.0850304195       -0.6692226659        2.6642729378
 H         -1.9406310598       -1.1544835598        0.9080239424
