  56
        -94.15242944
 C         -1.3545652167       -2.7283642232       -1.3461388119
 C         -1.7174226237       -2.6643814418       -2.8245927685
 C         -2.4063348681       -2.0165535217       -0.4875945793
 O         -3.3927613369       -1.4661817226       -0.9445755888
 O          1.1417034213       -3.8693428271       -0.5338724578
 O          0.5766574194       -1.5702422390        1.9529659286
 N         -0.1002742423       -2.0536564474       -1.0694071841
 C          0.9949979554       -2.6638394904       -0.5805900691
 C          2.0469652533       -1.6924114765       -0.0219403756
 C          1.8964536024       -1.7581255395        1.5131141660
 N          3.4110024793       -2.0542935652       -0.3647301572
 N         -2.1080776885       -2.0077657385        0.8282108750
 C         -2.7740763136       -1.0841638571        1.7355674021
 C         -2.5260428004       -1.4866449389        3.1778485428
 C         -2.1608607675        0.2750902525        1.3917554007
 O         -1.1074668434        0.6721290194        1.8741616033
 N         -2.7968778647        0.9612598516        0.4305576888
 O         -0.2140464584        0.8112735809       -0.8032609668
 O          0.1260829629        2.7048054496        0.3457925837
 C         -2.1259742418        2.1187352842       -0.1453218635
 C         -0.6403501642        1.7872145099       -0.2329351451
 C         -2.6595982811        2.4103112007       -1.5400191079
 H         -1.2377838003       -3.7691770249       -1.0223579837
 H         -2.6897995898       -3.1213525205       -2.9838541294
 H         -0.9707841340       -3.1884263926       -3.4144520034
 H         -1.7666819875       -1.6274073267       -3.1478995568
 H          0.3068832114       -0.6393470847        1.8655071621
 H         -0.1258926253       -1.0426917584       -1.1047339686
 H          1.8518405723       -0.6731778951       -0.3713570990
 H          2.5829293626       -1.0361101157        1.9699395566
 H          2.1756645162       -2.7643762081        1.8389854053
 H          3.5471736663       -1.9621706943       -1.3667339665
 H          3.5454101754       -3.0371839315       -0.1390286542
 H         -1.1891570977       -2.3146172653        1.1353865765
 H         -3.8418529386       -1.0842251132        1.4939742475
 H         -3.0127831215       -0.7834847266        3.8481482849
 H         -1.4579519266       -1.4849463956        3.3794004387
 H         -2.9207999284       -2.4825683964        3.3584304134
 H         -3.4958952367        0.4842427529       -0.1293081906
 H         -2.2461001896        2.9815771674        0.5198980229
 H         -2.0780554658        3.2066839061       -1.9969418309
 H         -3.7029664645        2.7098851505       -1.4871237989
 H         -2.5721570576        1.5194620596       -2.1582575372
 C          1.4894944415        2.4422682046        0.3400227283
 C          2.2261055339        2.4817595737       -0.8512399575
 C          2.0894050908        2.0880374451        1.5368854299
 C          3.5809275012        2.1466446486       -0.8009275689
 C          4.1823060927        1.7980799272        0.3915356570
 C          3.4380041146        1.7761098012        1.5619365678
 H          1.4800439173        2.0457087076        2.4263917460
 H          5.2275597965        1.5329680709        0.4116580981
 H          3.9054391500        1.5002250538        2.4947570586
 H          4.1555288884        2.1639192161       -1.7153854899
 C          1.6140834916        2.8552130381       -2.1333549021
 O          0.5076759911        3.3029600065       -2.2959178814
 H          2.2914559534        2.6911377159       -2.9949024735
