  56
        -94.14755257
 C         -2.1662563625       -0.1589542700       -2.2561941786
 C         -1.9717438737       -0.9138627200       -3.5596629008
 C         -0.9409494861        0.7359691278       -1.9596056557
 O          0.1898898025        0.4095658851       -2.2448763128
 O         -2.8334427413        0.3932628074        0.4334735527
 O         -3.1414139459       -0.5046742037        2.9903301898
 N         -2.3079060765       -1.1105117518       -1.1669253722
 C         -2.5814955669       -0.7635539126        0.0849904923
 C         -2.5437384734       -1.9195921999        1.0866833597
 C         -3.5088299503       -1.6412626714        2.2632320761
 N         -2.7743789076       -3.1728806670        0.3933786712
 N         -1.2583171926        1.8994642914       -1.3560267992
 C         -0.2419769484        2.8138328831       -0.8771108254
 C         -0.8514536494        4.1867164088       -0.6183637927
 C          0.4460385461        2.3086845812        0.3975168475
 O          1.6245832285        2.5067717091        0.6158130085
 N         -0.3480009065        1.6579998298        1.2664500271
 O          2.6059620619        0.5036253095        2.7021100721
 O          1.4333793939       -0.2364194233        0.9052712090
 C          0.2513793786        1.0642668399        2.4496355920
 C          1.6066386164        0.4640208659        2.0477938028
 C          0.4335895586        2.0845990114        3.5683472232
 H         -3.0685639301        0.4652041959       -2.2871894423
 H         -1.0577967303       -1.5003459219       -3.5002891227
 H         -1.8799344139       -0.2124903283       -4.3842750427
 H         -2.8148548840       -1.5743339518       -3.7461857606
 H         -3.1472021874        0.2350826509        2.3599632521
 H         -2.0248193160       -2.0704463645       -1.3359315548
 H         -1.5225500977       -1.9396752124        1.4934099427
 H         -3.4837059907       -2.4824937124        2.9628788818
 H         -4.5335307910       -1.5449446820        1.8695078715
 H         -3.7522657811       -3.2594872890        0.1356034997
 H         -2.5376754022       -3.9615861565        0.9833511817
 H         -2.1925652844        2.0137843086       -0.9874709440
 H          0.5381727054        2.8747628363       -1.6440430259
 H         -1.6213649637        4.1197591776        0.1482569831
 H         -1.2920272842        4.5820379720       -1.5305635658
 H         -0.0793732441        4.8703486733       -0.2767074541
 H         -1.3013360995        1.4182816944        1.0270374376
 H         -0.3974690805        0.2477376306        2.7852973855
 H          0.9349037976        1.6154122075        4.4093172000
 H         -0.5321126887        2.4658733175        3.8885903195
 H          1.0503758221        2.9048385173        3.2116361188
 C          2.4518914869       -0.6246630841        0.0637936159
 C          2.0995651136       -1.5354727720       -0.9489773243
 C          3.7370692933       -0.1097218026        0.1185697846
 C          3.0579773701       -1.9131227970       -1.8883974610
 C          4.3405632424       -1.4102438626       -1.8226679170
 C          4.6721069360       -0.5087427188       -0.8219458983
 H          3.9964715102        0.6093064824        0.8777550361
 H          5.0797971791       -1.7075560031       -2.5508843226
 H          5.6702838978       -0.0998907101       -0.7738511151
 H          2.7610465513       -2.6045479235       -2.6623985557
 C          0.7387876450       -2.0522103137       -1.0222359939
 O          0.2748009966       -2.7505927173       -1.8927404484
 H          0.1190333214       -1.7519513184       -0.1579553179
