  56
        -94.14755131
 C         -2.1558532654       -0.1668222055       -2.2528443572
 C         -1.9578860023       -0.9270690754       -3.5526831733
 C         -0.9326263181        0.7313645346       -1.9576774388
 O          0.1989072557        0.4074649029       -2.2426640306
 O         -2.8312803701        0.3960371881        0.4328200204
 O         -3.2010940329       -0.4991937361        2.9822838004
 N         -2.2988108160       -1.1137972082       -1.1597842517
 C         -2.5776551489       -0.7621264634        0.0895531819
 C         -2.5464467033       -1.9135460607        1.0966282657
 C         -3.5407819751       -1.6409108180        2.2502181348
 N         -2.7476388079       -3.1729334070        0.4054157802
 N         -1.2533934247        1.8951647171       -1.3562929641
 C         -0.2394829748        2.8124259185       -0.8777940602
 C         -0.8526013196        4.1835317121       -0.6184346490
 C          0.4498432191        2.3086563876        0.3964216773
 O          1.6293871403        2.5040334439        0.6120802707
 N         -0.3434335592        1.6609403604        1.2682974075
 O          2.6149342551        0.5107639286        2.6963670510
 O          1.4352069110       -0.2371292068        0.9074307025
 C          0.2587091301        1.0691831325        2.4510695768
 C          1.6130574497        0.4685186944        2.0461846593
 C          0.4438945955        2.0913878888        3.5675183670
 H         -3.0589535534        0.4559677575       -2.2883758708
 H         -1.0428274180       -1.5113619486       -3.4895826643
 H         -1.8665098314       -0.2291218779       -4.3802126017
 H         -2.7992426922       -1.5902473022       -3.7374530114
 H         -3.1911555310        0.2377385497        2.3485137285
 H         -2.0120085821       -2.0737390329       -1.3233023085
 H         -1.5343602290       -1.9191248619        1.5257231774
 H         -3.5242489723       -2.4801082024        2.9526104441
 H         -4.5569589714       -1.5553989249        1.8323367783
 H         -3.7195254936       -3.2741736732        0.1308363793
 H         -2.5106828472       -3.9556643598        1.0031399587
 H         -2.1875826646        2.0061806493       -0.9863693584
 H          0.5402655968        2.8755025770       -1.6449836340
 H         -0.0822971166        4.8692642231       -0.2769464753
 H         -1.6220717078        4.1143208363        0.1484235037
 H         -1.2945850629        4.5777252685       -1.5304060310
 H         -1.2979689468        1.4226808564        1.0322782910
 H         -0.3890446099        0.2529314358        2.7893498074
 H          1.0609814466        2.9101973786        3.2080536615
 H          0.9462920449        1.6233740645        4.4085008700
 H         -0.5207776033        2.4745040629        3.8887084195
 C          2.4503507311       -0.6229262964        0.0607826069
 C          2.0970126083       -1.5406388086       -0.9452632124
 C          3.7316855267       -0.0974633652        0.1030254207
 C          3.0505084783       -1.9139868984       -1.8914208646
 C          4.3294804503       -1.4006156102       -1.8381985635
 C          4.6620914674       -0.4927116243       -0.8436103664
 H          3.9911963450        0.6271601095        0.8568339559
 H          5.0649715039       -1.6946101165       -2.5715330875
 H          5.6572685012       -0.0756186828       -0.8054171502
 H          2.7527320641       -2.6106672195       -2.6603687214
 C          0.7396850546       -2.0675828914       -1.0057622854
 O          0.2714981511       -2.7646417195       -1.8751644516
 H          0.1263840996       -1.7757935783       -0.1339155150
