  56
        -94.14752604
 C         -1.8401613520        1.3864458424       -1.4109563776
 C         -1.1824027789        0.6700889475       -2.5884161809
 C         -0.8110189440        2.2828124888       -0.7212991481
 O         -0.0534173584        3.0071920887       -1.3470260321
 O         -4.5421576020        1.2134232693       -0.7377900754
 O         -6.3274703279       -0.8904627156       -0.4804318328
 N         -2.4335778771        0.4466028729       -0.4872362477
 C         -3.7474441430        0.4416849379       -0.2191782957
 C         -4.2392502079       -0.6112543794        0.7694235015
 C         -5.1820780653       -1.5490711357       -0.0302784740
 N         -3.1597245579       -1.2787771496        1.4677267517
 N         -0.8248907840        2.2330588100        0.6218261748
 C          0.1581587669        2.9191669503        1.4456054141
 C         -0.2981145004        2.9455276326        2.8930981686
 C          1.4564391843        2.1205739236        1.2677526953
 O          1.7659596715        1.1838989212        1.9799720042
 N          2.1866509596        2.5038795631        0.1976857069
 O          1.5984670987       -0.0022041104       -0.8928497848
 O          3.4438942572       -0.7133547885        0.1781000714
 C          3.2508862020        1.6172110303       -0.2352457374
 C          2.6558682876        0.2171593824       -0.3560972588
 C          3.7992181817        2.0701855742       -1.5813420713
 H         -2.6537358796        2.0304037012       -1.7712432958
 H         -1.9228971165        0.1002769706       -3.1432183194
 H         -0.4080608204       -0.0002441299       -2.2237788219
 H         -0.7269012744        1.4049441362       -3.2457002642
 H         -6.0526626865       -0.0138377546       -0.8049702923
 H         -1.8371367339       -0.2912108906       -0.1265808738
 H         -4.8522872932       -0.0843108692        1.5112731796
 H         -5.5193567850       -2.3692562746        0.6135005525
 H         -4.6161715813       -1.9824511412       -0.8740489053
 H         -2.6508302440       -1.9001387552        0.8461131097
 H         -3.5340842802       -1.8456959500        2.2203223089
 H         -1.4128065004        1.5489348187        1.0772905574
 H          0.2903752335        3.9303541376        1.0454504958
 H         -0.3057062703        1.9338777531        3.2928793151
 H         -1.2945991948        3.3730110828        2.9675654866
 H          0.3891569980        3.5423581330        3.4863205942
 H          1.6886086542        3.0188606849       -0.5291707116
 H          4.0330461297        1.5929431369        0.5317164362
 H          4.6056823288        1.4159312655       -1.9020877582
 H          4.1795029852        3.0847718654       -1.4982660991
 H          3.0052437800        2.0480902930       -2.3247910083
 C          3.0902174567       -2.0538393096        0.0901150936
 C          1.7743926934       -2.5038147156        0.2223791414
 C          4.1161331517       -2.9489694757       -0.1759349887
 C          1.5119464780       -3.8604288050        0.0424396602
 C          2.5342240045       -4.7539045184       -0.2114668350
 C          3.8395965079       -4.2981542260       -0.3074945259
 H          5.1218561190       -2.5719714800       -0.2751973345
 H          2.3156196396       -5.8032082487       -0.3355336609
 H          4.6443675903       -4.9908416420       -0.4998044479
 H          0.4890086872       -4.1956454953        0.1238723130
 C          0.6631169420       -1.5943870281        0.5708011531
 O         -0.4664885458       -1.7194515418        0.1588795344
 H          0.9158467503       -0.8310247957        1.3267247796
