  56
        -94.15242893
 C         -1.3953720488       -2.7048867762       -1.3541281055
 C         -1.7554462667       -2.6279386232       -2.8326078125
 C         -2.4365996857       -1.9809749586       -0.4928902611
 O         -3.4126488139       -1.4108245203       -0.9478845995
 O          1.0814722736       -3.8881354007       -0.5438010689
 O          0.5487859102       -1.6001637011        1.9558512619
 N         -0.1312536419       -2.0508490764       -1.0723407085
 C          0.9535767562       -2.6802907262       -0.5846267936
 C          2.0192263956       -1.7283047764       -0.0185807064
 C          1.8663654939       -1.8023129226        1.5159047981
 N          3.3780660229       -2.1081096599       -0.3626053181
 N         -2.1402745177       -1.9855052451        0.8234159007
 C         -2.7906210219       -1.0549015993        1.7349357729
 C         -2.5516411493       -1.4692097467        3.1753826542
 C         -2.1535661635        0.2952291194        1.3981410274
 O         -1.0923979395        0.6706845107        1.8808385286
 N         -2.7796931126        0.9981795652        0.4426338416
 O         -0.2017955012        0.8165092531       -0.8022588151
 O          0.1705320209        2.6960677254        0.3592524064
 C         -2.0915879719        2.1482011897       -0.1276113995
 C         -0.6116393259        1.7944069665       -0.2233583097
 C         -2.6254255915        2.4577649829       -1.5183499594
 H         -1.2949008572       -3.7489195288       -1.0353509723
 H         -1.0160018279       -3.1600459627       -3.4243409630
 H         -1.7888450006       -1.5886921645       -3.1505612414
 H         -2.7343436749       -3.0695258841       -2.9953428252
 H          0.2914129763       -0.6650527452        1.8742642100
 H         -0.1409163310       -1.0394586447       -1.1041533119
 H          1.8395297646       -0.7039876590       -0.3613740891
 H          2.5617546004       -1.0925411811        1.9783012150
 H          2.1321672206       -2.8142825786        1.8351042190
 H          3.5172368016       -2.0095294034       -1.3635717028
 H          3.4970942736       -3.0947856653       -0.1449125198
 H         -1.2274033481       -2.3105020471        1.1299566479
 H         -3.8580248031       -1.0348945085        1.4924589033
 H         -3.0267520602       -0.7610442649        3.8487447834
 H         -1.4840226075       -1.4878586371        3.3784641153
 H         -2.9644815088       -2.4588470832        3.3500673879
 H         -3.4868135956        0.5357697476       -0.1193353223
 H         -2.1954518380        3.0083446207        0.5437960233
 H         -2.0330684958        3.2480824398       -1.9718397034
 H         -3.6637711645        2.7732051497       -1.4594932632
 H         -2.5541457400        1.5698680510       -2.1428935997
 C          1.5306670867        2.4175530074        0.3399762317
 C          2.2603660476        2.4747289261       -0.8548204438
 C          2.1343030683        2.0326250687        1.5254182373
 C          3.6124895959        2.1269803161       -0.8196628226
 C          4.2175576306        1.7476701197        0.3614645014
 C          3.4799703274        1.7074744246        1.5356104677
 H          1.5299147413        1.9778699097        2.4176497808
 H          5.2606125373        1.4733879906        0.3699183045
 H          3.9503987678        1.4070491136        2.4592691569
 H          4.1818441702        2.1587104522       -1.7370423768
 C          1.6438536680        2.8786606430       -2.1253825320
 O          0.5376997286        3.3322096820       -2.2731948274
 H          2.3173613352        2.7331196306       -2.9932584023
