  56
        -94.14749628
 C         -2.2114377197       -0.8665063823       -2.0277129606
 C         -1.3689602131       -0.6359899942       -3.2698286285
 C         -2.6931259324        0.4616373881       -1.4254241967
 O         -2.3934894839        1.5572740291       -1.8572651126
 O         -3.0809856901       -2.8320784163       -0.2143107819
 O         -1.3205222059       -5.1414628590        0.4706378903
 N         -1.4224218585       -1.5092055750       -0.9889411753
 C         -1.9558293986       -2.3576028778       -0.1032190871
 C         -1.0450703478       -2.7879298954        1.0397149029
 C         -0.3855656032       -4.1078022349        0.5916468551
 N         -0.0423119551       -1.7776715758        1.3407090924
 N         -3.4303247897        0.2862235601       -0.3064397408
 C         -3.5077912734        1.3235363517        0.7127153922
 C         -4.4757785736        0.9147469889        1.8076932111
 C         -2.0685370982        1.4567739656        1.2440303517
 O         -1.6242576393        0.7408920019        2.1240922563
 N         -1.3409092303        2.3949912672        0.6086802510
 O          0.4289355024        0.6709968011       -0.6381355741
 O          2.1123772364        1.3923731763        0.6700737640
 C          0.0757205990        2.5401471723        0.8624919875
 C          0.8631153361        1.4116618648        0.2036744539
 C          0.5744511919        3.8801272859        0.3289630686
 H         -3.0706013532       -1.5153006189       -2.2332641285
 H         -0.5173083961       -0.0117355446       -3.0124132509
 H         -1.9593750830       -0.1217930176       -4.0224895477
 H         -1.0172874492       -1.5823123878       -3.6713415738
 H         -2.1303716223       -4.7820204054        0.0784038279
 H         -0.5307499168       -1.0770224588       -0.7770470490
 H         -1.7006572865       -3.0235684417        1.8961545233
 H          0.3454645179       -4.4325531262        1.3389433966
 H          0.1428425704       -3.9355423148       -0.3597319642
 H          0.5339718772       -2.1048110062        2.1114031485
 H         -0.5041856254       -0.9285825118        1.6672260958
 H         -3.6204861985       -0.6567475252        0.0050055444
 H         -3.8168006939        2.2571463245        0.2316539767
 H         -4.5969993515        1.7276870408        2.5183674324
 H         -4.0827721936        0.0502368359        2.3384460287
 H         -5.4443375093        0.6667780170        1.3818235789
 H         -1.6715572460        2.7079612615       -0.2987260743
 H          0.2378688978        2.4690961879        1.9439392275
 H          0.3715366663        3.9507608441       -0.7378641161
 H          1.6454068541        3.9685351594        0.4904472833
 H          0.0655432563        4.6932198039        0.8393065680
 C          3.0448802934        0.5015124573        0.1759149493
 C          4.3157882833        1.0018503748       -0.1538542171
 C          2.7628252294       -0.8507163610        0.0528409121
 C          5.2878152863        0.1042740645       -0.5991712103
 C          5.0070455886       -1.2410266211       -0.7279528948
 C          3.7447557882       -1.7144268872       -0.4029403603
 H          1.7836588901       -1.2214324029        0.3257290764
 H          5.7678578318       -1.9212997614       -1.0785142337
 H          3.5196438106       -2.7656787720       -0.4980777336
 H          6.2684784733        0.4819278909       -0.8497510047
 C          4.6424601013        2.4300809043       -0.0684480970
 O          3.8964536587        3.3242682472        0.2375534498
 H          5.6968099725        2.6410042423       -0.3386362538
