  56
        -94.14749407
 C         -1.2128554201       -3.4872385046        0.4561036986
 C         -1.6520065970       -4.6209691945       -0.4530755402
 C         -2.2874010433       -2.3872677116        0.5476608642
 O         -3.1952560511       -2.2786353583       -0.2614870264
 O          0.6610756764       -1.9052444781        1.8704665580
 O          3.5693956231       -2.2354012188        1.5185915662
 N         -0.0096615413       -2.8595557771       -0.0637539249
 C          0.8124647398       -2.1061051549        0.6714381778
 C          1.9425065915       -1.4758837962       -0.1382528365
 C          3.1302082248       -1.1245863393        0.7820802004
 N          2.2798010993       -2.3354833015       -1.2623655905
 N         -2.0889279263       -1.5455155351        1.5697675449
 C         -2.8958416216       -0.3575532848        1.7924021028
 C         -2.7385443250        0.1063040269        3.2305095867
 C         -2.4685880725        0.7477314035        0.8089405504
 O         -1.9019773258        1.7699874696        1.1461999424
 N         -2.7621821265        0.4699838208       -0.4668075301
 O         -1.3558289288        3.5146636745       -1.1183329644
 O         -0.1503105399        1.6118672206       -0.9360582496
 C         -2.4349967140        1.3931061139       -1.5353421089
 C         -1.2924404145        2.3201136511       -1.1074712634
 C         -2.0530372784        0.6165959372       -2.7926674986
 H         -0.9927314197       -3.8515939138        1.4670581887
 H         -2.5055093748       -5.1320632836       -0.0168313960
 H         -0.8425685150       -5.3332151359       -0.5892231056
 H         -1.9535056728       -4.2228844796       -1.4189523479
 H          2.8747689861       -2.4515572666        2.1544100791
 H          0.2324933746       -2.9725806743       -1.0400674715
 H          1.5275667835       -0.5406852651       -0.5352537139
 H          2.8394818049       -0.2989776672        1.4443829983
 H          3.9758242359       -0.8031116402        0.1686475306
 H          2.8707015097       -3.0924417708       -0.9270157752
 H          2.8286369445       -1.8110451442       -1.9382637167
 H         -1.2154919149       -1.6122465994        2.0894630233
 H         -3.9380982520       -0.6207489499        1.5724175163
 H         -1.7020552592        0.3777943221        3.4161072938
 H         -3.0339719369       -0.6822643768        3.9174427167
 H         -3.3559086675        0.9829477426        3.4039599353
 H         -3.1988734084       -0.4178363790       -0.7040821558
 H         -3.2980453869        2.0434112964       -1.7396951785
 H         -1.8046970340        1.3043138922       -3.5969232316
 H         -2.8885152078       -0.0041252785       -3.1080515172
 H         -1.1967554412       -0.0228960832       -2.5915620759
 C          0.9772623651        2.2437834327       -0.4455126310
 C          2.2144966536        1.9120363482       -1.0187687151
 C          0.9142425346        3.1052554415        0.6377821759
 C          3.3795664335        2.4523217036       -0.4708989235
 C          3.3147351847        3.3218707146        0.5976119145
 C          2.0823409730        3.6462952175        1.1473625589
 H         -0.0450870265        3.3266424049        1.0769773787
 H          4.2192739094        3.7442984442        1.0074235064
 H          2.0278006751        4.3203862396        1.9885644866
 H          4.3233203915        2.1791799379       -0.9185303904
 C          2.2940702825        1.0074756521       -2.1676975493
 O          3.2954005038        0.4504129103       -2.5502955936
 H          1.3300009050        0.8559915363       -2.6895952698
