  56
        -94.14749313
 C         -3.9568003771        1.4589367535       -1.0773302662
 C         -4.8693309973        1.2636138599       -2.2754342306
 C         -2.6124752906        2.0808345033       -1.4931711001
 O         -2.1993421588        2.0584181132       -2.6430646794
 O         -2.9711052838        1.0048822141        1.5213208994
 O         -4.5475599352       -2.4811258945       -0.3186290005
 N         -3.6705168871        0.1753221698       -0.4570660339
 C         -3.2339666571        0.0517801813        0.8022724942
 C         -3.0735758322       -1.3920806470        1.2703433068
 C         -4.3739874014       -2.1916048090        1.0461178581
 N         -2.0397996578       -2.0396350164        0.4634320166
 N         -1.9410623128        2.6130621734       -0.4647515817
 C         -0.6043601545        3.1674433248       -0.5926281062
 C         -0.3192115944        4.0939022763        0.5773818786
 C          0.4112592032        2.0171215939       -0.6465211144
 O          1.2322737392        1.7908297018        0.2250884800
 N          0.3028495669        1.2498707387       -1.7367537840
 O          0.7209116458       -0.8975495095        0.3186879100
 O          2.8348588450       -0.4593785153       -0.3351304266
 C          1.1178448151        0.0580119231       -1.8699493338
 C          1.5030910677       -0.4246600993       -0.4657591484
 C          0.3290259360       -1.0330949343       -2.5858396439
 H         -4.4234686108        2.1086275206       -0.3251950252
 H         -4.3431154360        0.7129107905       -3.0513985304
 H         -5.1572969580        2.2293491585       -2.6812027123
 H         -5.7640203836        0.7185114007       -1.9859571593
 H         -3.6878980568       -2.8142682562       -0.6246673142
 H         -3.9550863832       -0.6643531001       -0.9480382903
 H         -2.8453932361       -1.3556876314        2.3467733629
 H         -5.2463754104       -1.6218621635        1.3715985145
 H         -4.3274607361       -3.1236709062        1.6273915778
 H         -1.7894022910       -2.9288427747        0.8877768125
 H         -1.1880567348       -1.4829201655        0.4523186752
 H         -2.2615669818        2.3866196603        0.4783306157
 H         -0.5607366167        3.7059881949       -1.5476598675
 H          0.6755978787        4.5186031517        0.4779759040
 H         -0.3593296325        3.5305544071        1.5064664192
 H         -1.0510349064        4.8964047311        0.6111965093
 H         -0.4254844386        1.4377588278       -2.4226913333
 H          2.0419633315        0.2974356599       -2.4136788209
 H         -0.0157538719       -0.6670359891       -3.5497737244
 H         -0.5302886809       -1.3205766068       -1.9835778282
 H          0.9546101001       -1.9075943850       -2.7444764284
 C          3.3965791449       -0.7843743701        0.8891214235
 C          4.4660899056       -1.6899772898        0.9142847588
 C          2.9477653936       -0.1911621717        2.0582710335
 C          5.0662913764       -1.9849857644        2.1401367023
 C          4.6149323938       -1.4012658346        3.3056407441
 C          3.5578776769       -0.5033119896        3.2610966154
 H          2.1374094256        0.5183451229        2.0065162329
 H          5.0847050139       -1.6387138814        4.2479965688
 H          3.2060269407       -0.0372561824        4.1690377968
 H          5.8897784080       -2.6834497366        2.1411840979
 C          4.9543135521       -2.3318951192       -0.3110023196
 O          5.8471833820       -3.1399491087       -0.3600089497
 H          4.4222724635       -2.0120692291       -1.2264424473
