  56
        -94.14747380
 C         -2.0472669966       -1.4981424283        1.4074787672
 C         -2.7145525745       -2.2497371677        2.5507454373
 C         -2.8562477459       -0.2261571348        1.0810095807
 O         -3.9664518908       -0.2833812032        0.5986834298
 O         -1.5016455484       -0.6802753342       -1.2358876558
 O          0.4170428117       -3.0199994965       -2.6710606659
 N         -2.0202381650       -2.3289008177        0.2211784042
 C         -1.7993486437       -1.8415772869       -1.0019183053
 C         -1.9485457376       -2.8821539093       -2.1162744658
 C         -0.8450303712       -2.6717599487       -3.1772704512
 N         -1.9287314143       -4.2256516587       -1.5515550075
 N         -2.2352852609        0.9172823686        1.4229205602
 C         -2.7065538474        2.2248661014        0.9951444866
 C         -3.1526924998        3.0725362088        2.1800311435
 C         -1.5286305422        2.8765800704        0.2564191554
 O         -1.0524199834        3.9485606077        0.5650057529
 N         -1.0552301045        2.1074150661       -0.7510417797
 O          0.7789339111        1.0139666838        0.8612673727
 O          2.4873445135        1.5729253095       -0.4878301390
 C          0.3155998570        2.2369663972       -1.1755187247
 C          1.1888966520        1.5209415794       -0.1498871071
 C          0.5137677476        1.6482595050       -2.5663653064
 H         -1.0179632992       -1.2188214731        1.6721519108
 H         -2.6913263468       -1.6470987188        3.4549475536
 H         -2.2016353404       -3.1901313385        2.7416284316
 H         -3.7519892451       -2.4511575497        2.2935390520
 H          0.7233667429       -2.3101729384       -2.0823772572
 H         -2.3247763771       -3.2930513115        0.2680595655
 H         -2.9249401233       -2.6970841312       -2.5783272078
 H         -0.8721179437       -1.6339337998       -3.5265314262
 H         -1.0273092953       -3.3374956007       -4.0270154071
 H         -0.9537402156       -4.4814936213       -1.4035321531
 H         -2.3060958371       -4.8880410657       -2.2210274191
 H         -1.2635426215        0.8811066548        1.7017204414
 H         -3.5437436769        2.0555427038        0.3084317641
 H         -3.9776376195        2.5894143158        2.6962416097
 H         -3.4685591765        4.0500605359        1.8281341076
 H         -2.3240555574        3.2096275077        2.8702544490
 H         -1.4339949680        1.1713858232       -0.8773262745
 H          0.5839344560        3.3009824992       -1.1500020448
 H          1.5581765111        1.7068664031       -2.8575403456
 H         -0.0931815936        2.1946307509       -3.2826690329
 H          0.2009502288        0.6076146619       -2.5563894253
 C          3.4106408779        0.9345788633        0.3153777428
 C          3.3207961106       -0.4345278874        0.6078801192
 C          4.4464974246        1.6969525341        0.8350561261
 C          4.2781450379       -0.9966856675        1.4563029204
 C          5.3105775540       -0.2374614235        1.9668683980
 C          5.3997982583        1.1097119608        1.6469426663
 H          4.4876727863        2.7476737036        0.5942652910
 H          6.0461462328       -0.6901237195        2.6135679747
 H          6.2061685449        1.7081941422        2.0420995496
 H          4.2085558496       -2.0484775511        1.6925455879
 C          2.3033990636       -1.3082772337        0.0177680264
 O          1.6265495688       -1.0681461211       -0.9518170262
 H          2.2203103992       -2.2849979007        0.5329443083
