  56
        -94.14746900
 C          0.7938461321        1.3688337269       -2.3898169697
 C         -0.2515635479        1.2519548479       -3.4858573414
 C          1.4024261206        0.0024305854       -2.0295310934
 O          0.9977222002       -1.0586709268       -2.4718929982
 O          2.1322933937        2.9546214836       -0.5294986138
 O          0.3213954991        0.7320866856        1.4214225990
 N          0.2184137743        1.9607133166       -1.1916854779
 C          0.9608874902        2.6713100835       -0.3240979839
 C          0.2564494372        3.0866342532        0.9701427672
 C          0.6032426568        1.9883593028        1.9951779886
 N          0.7090734243        4.3655654095        1.4738826775
 N          2.4278672128        0.1114728869       -1.1725517157
 C          3.0963170550       -1.0387263829       -0.5881149466
 C          4.3662515247       -0.5915599710        0.1160211195
 C          2.1228548667       -1.7072453517        0.4003622054
 O          2.0755029984       -1.4062297331        1.5815996033
 N          1.3463452674       -2.6439818425       -0.1657982264
 O         -2.0461246877       -3.0611666770        0.9848273492
 O         -0.9029611196       -1.4193589721       -0.0418445512
 C          0.3216446006       -3.3394146935        0.5769533760
 C         -1.0253283077       -2.6119622443        0.5435298528
 C          0.1490309193       -4.7644244913        0.0598842651
 H          1.6088659375        2.0336367342       -2.7017164553
 H         -1.0504456865        0.5884062130       -3.1676217682
 H          0.2036879814        0.8364660447       -4.3803051495
 H         -0.6675620246        2.2291640150       -3.7163421530
 H          0.9108310184        0.0548199637        1.7978754247
 H         -0.6698798332        1.5937752931       -0.8840074746
 H         -0.8269889263        3.1131335867        0.8249685213
 H         -0.0025359507        2.1362471670        2.8999440524
 H          1.6622880225        2.0757241921        2.2558620660
 H          0.3831323549        5.1152447116        0.8733057487
 H          1.7254985444        4.3846042576        1.4541190325
 H          2.6815902298        1.0283703755       -0.8220430977
 H          3.3215206100       -1.7470819128       -1.3950867591
 H          4.9998716261       -0.0311857977       -0.5664074749
 H          4.9135866647       -1.4568639751        0.4797270083
 H          4.1118511751        0.0345266182        0.9679798888
 H          1.2472754341       -2.6131670244       -1.1769630496
 H          0.6397406401       -3.3526087865        1.6282305640
 H         -0.0881288305       -4.7507073210       -1.0017108738
 H         -0.6658646490       -5.2448387497        0.5937769932
 H          1.0624167391       -5.3329773351        0.2103004205
 C         -2.0061454579       -0.5774114782       -0.1320342757
 C         -2.3895811248        0.2230279901        0.9461062866
 C         -2.6602137211       -0.4869253468       -1.3507901943
 C         -3.4139135534        1.1481525116        0.7527705551
 C         -4.0579191092        1.2530681306       -0.4652914504
 C         -3.6884690639        0.4265733459       -1.5149995605
 H         -2.3540109095       -1.1382649850       -2.1556888039
 H         -4.8537571148        1.9701715744       -0.5963069585
 H         -4.1985534733        0.4909120805       -2.4641266201
 H         -3.6924770261        1.7708533889        1.5899340767
 C         -1.7644512607        0.1099464884        2.2840381515
 O         -1.8746269466        0.9448660323        3.1482361088
 H         -1.2854263829       -0.8634115724        2.4839888926
