  56
        -94.14745658
 C          0.7409411166       -0.5378167887       -2.4079905163
 C          1.0321329194        0.7110834490       -3.2224488988
 C         -0.7649567393       -0.6802520995       -2.1161371219
 O         -1.5427634374        0.2617114712       -2.1847844995
 O          1.3384476261       -2.7045006408       -0.7095976679
 O          2.7068524382       -3.6252024998        1.5063245239
 N          1.4614574003       -0.4961793772       -1.1508251434
 C          1.6949216179       -1.5718409562       -0.3950816240
 C          2.4446786358       -1.2624205081        0.8963377193
 C          3.3860102632       -2.4323786102        1.2560458626
 N          3.1209260508        0.0225794349        0.7779983471
 N         -1.1158693689       -1.9304897255       -1.7952754946
 C         -2.4705937236       -2.3293805541       -1.4403192771
 C         -2.6050857446       -3.8369412240       -1.5647640002
 C         -2.7289289373       -1.8617104737        0.0043584804
 O         -2.7009025270       -2.5934389310        0.9641231008
 N         -2.9743906167       -0.5283739638        0.0706371953
 O         -0.3783866524        0.1118450004        1.2039539632
 O         -1.3992996513        2.0844811858        0.8652856778
 C         -2.7845259939        0.2003981893        1.3128248935
 C         -1.3797875729        0.7761675987        1.1675803354
 C         -3.8735812621        1.2385831739        1.5262632942
 H          1.0682997957       -1.4380989395       -2.9443817031
 H          0.5580137176        0.6336087552       -4.1969490125
 H          2.1039094230        0.8325851715       -3.3556977722
 H          0.6305869222        1.5833381810       -2.7131531824
 H          2.0974648183       -3.7633996114        0.7617961986
 H          1.7511647993        0.3896737507       -0.7542844709
 H          1.6706363717       -1.1831650500        1.6684245800
 H          3.9384815877       -2.1869250941        2.1691025792
 H          4.1129638039       -2.5595759654        0.4334390190
 H          4.0467357627       -0.1085321053        0.3822965607
 H          3.2259354518        0.4518759051        1.6908337029
 H         -0.3685606173       -2.5795337948       -1.5466549475
 H         -3.1589116298       -1.8079703162       -2.1161313272
 H         -2.3233269046       -4.1631483541       -2.5624241108
 H         -3.6317317284       -4.1323075596       -1.3680752558
 H         -1.9646558894       -4.3188223375       -0.8301854156
 H         -2.8355912274        0.0082721240       -0.7843533884
 H         -2.7751170357       -0.5485943681        2.1136140418
 H         -3.9018518098        1.9370284892        0.6942366998
 H         -3.6923284333        1.7922558159        2.4432485105
 H         -4.8357851022        0.7394303699        1.6000870556
 C         -0.2269045101        2.6822541692        0.4252210485
 C          0.9571939553        2.6434370291        1.1672205403
 C         -0.2648266516        3.3045821547       -0.8134969806
 C          2.1060265254        3.2173450979        0.6201400071
 C          2.0685871593        3.8438284369       -0.6089054493
 C          0.8785012452        3.8985335792       -1.3200045846
 H         -1.1892966984        3.3021565714       -1.3693908929
 H          2.9619974303        4.2921911314       -1.0151305861
 H          0.8416858189        4.3920288562       -2.2793831834
 H          3.0174781466        3.1692935931        1.1955473823
 C          1.0206726108        2.0528235408        2.5136634145
 O          2.0348418968        1.6884994960        3.0501325204
 H          0.0498985302        2.0029052566        3.0410333689
