  56
        -94.14745131
 C         -1.9066924393        1.1324010235       -1.8786443015
 C         -1.0385122957        0.7178164245       -3.0627124264
 C         -1.1492841562        2.1581214722       -1.0308959228
 O         -0.4745971867        3.0443890065       -1.5304292862
 O         -4.5098196723        0.5120992603       -1.0161575081
 O         -3.7070264416       -2.2795894303        2.3913292530
 N         -2.3136578211       -0.0213154429       -1.1082287819
 C         -3.5911591411       -0.2382498895       -0.7432812461
 C         -3.8102141664       -1.4968833220        0.1015422299
 C         -3.3806089363       -1.2070140097        1.5555500736
 N         -5.2111721631       -1.8915208500        0.1434491103
 N         -1.3101114788        2.0269461006        0.2961696191
 C         -0.5763602297        2.8272918454        1.2651282696
 C         -1.2133680352        2.7029719402        2.6372109852
 C          0.8519568660        2.2667793023        1.2388851682
 O          1.2346382036        1.3807583920        1.9794140682
 N          1.6205709399        2.7885625012        0.2581902311
 O          1.5232857211        0.2488814716       -0.8950152968
 O          3.3787675511       -0.1945089499        0.2980643133
 C          2.8455978796        2.0865917518       -0.0755914641
 C          2.4899509170        0.6148526030       -0.2734098226
 C          3.4461737675        2.6540439349       -1.3545238613
 H         -2.8283772863        1.6170169473       -2.2286583156
 H         -0.1504370548        0.2066207501       -2.6978842773
 H         -0.7315158032        1.6038739187       -3.6106221972
 H         -1.5905796043        0.0564354169       -3.7247445620
 H         -4.5792897281       -2.5874620458        2.1006597640
 H         -1.5950048219       -0.6890215120       -0.8508064230
 H         -3.2114884967       -2.3279471321       -0.2815784572
 H         -3.8853111578       -0.2880371226        1.8981621100
 H         -2.2983579260       -1.0716759421        1.6161598655
 H         -5.4822839215       -2.3248778762       -0.7324594645
 H         -5.7730129531       -1.0466992834        0.2356464177
 H         -1.8033109155        1.2190853733        0.6478047455
 H         -0.5733893925        3.8643754210        0.9127678523
 H         -2.2707903547        2.9491673199        2.5865517727
 H         -0.7247656382        3.3787363599        3.3335850246
 H         -1.0944178297        1.6869692196        3.0075540960
 H          1.1309300059        3.2544812789       -0.5061706123
 H          3.5450629738        2.1601454145        0.7645950918
 H          4.3682133795        2.1350864365       -1.6031527448
 H          3.6610257998        3.7107411305       -1.2198287532
 H          2.7393372176        2.5373369341       -2.1733665884
 C          3.2477051286       -1.5723656241        0.1708855552
 C          2.0146388254       -2.2249088253        0.2400801319
 C          4.4110821558       -2.2904979377       -0.0625717416
 C          1.9733965214       -3.6021363248        0.0330656338
 C          3.1330868667       -4.3195145421       -0.1875802222
 C          4.3536994925       -3.6637529770       -0.2228155218
 H          5.3490085008       -1.7601601068       -0.1133081707
 H          3.0873052698       -5.3877261775       -0.3325365929
 H          5.2641218675       -4.2188163709       -0.3889507554
 H          1.0127993191       -4.0932786408        0.0696938617
 C          0.7660035458       -1.5015746248        0.5514679977
 O         -0.3125182291       -1.7759795141        0.0803617629
 H          0.8717497933       -0.7211419321        1.3253560985
