  56
        -94.15242828
 C         -1.3987566152       -2.6993048157       -1.3587796938
 C         -1.7590989278       -2.6173278953       -2.8368764674
 C         -2.4385617374       -1.9759006342       -0.4952628837
 O         -3.4140540709       -1.4033352773       -0.9483893721
 O          1.0730838820       -3.8884999550       -0.5423360890
 O          0.5456603835       -1.6069521931        1.9600052639
 N         -0.1332721285       -2.0484631047       -1.0756758385
 C          0.9484377416       -2.6803253442       -0.5839927175
 C          2.0149099229       -1.7308570423       -0.0151702912
 C          1.8627145253       -1.8100417484        1.5190347438
 N          3.3735593097       -2.1094735968       -0.3612909471
 N         -2.1417508180       -1.9841502443        0.8209093338
 C         -2.7905462866       -1.0550662803        1.7350512277
 C         -2.5526887798       -1.4739694778        3.1743789482
 C         -2.1511308926        0.2948693436        1.4019501656
 O         -1.0887420960        0.6667752980        1.8847468191
 N         -2.7769367934        1.0020528544        0.4493621565
 O         -0.2028922672        0.8186807079       -0.8022842369
 O          0.1772145228        2.6931994336        0.3648326896
 C         -2.0875812575        2.1526324414       -0.1181870991
 C         -0.6087487978        1.7956780629       -0.2191244593
 C         -2.6244734165        2.4685904865       -1.5063435839
 H         -1.3002443933       -3.7444191804       -1.0429167389
 H         -1.7902253665       -1.5770925520       -3.1518344159
 H         -2.7390655313       -3.0561967712       -3.0004829923
 H         -1.0211028892       -3.1494270258       -3.4304003910
 H          0.2894231132       -0.6712354312        1.8807377633
 H         -0.1410135642       -1.0370382376       -1.1066689869
 H          1.8355091919       -0.7052928146       -0.3544594548
 H          2.5596575414       -1.1032783151        1.9837425950
 H          2.1265387260       -2.8237088138        1.8345832340
 H          3.5105664634       -2.0122678803       -1.3626926590
 H          3.4946536801       -3.0955484174       -0.1422393900
 H         -1.2295839734       -2.3117362345        1.1267698015
 H         -3.8578745690       -1.0324556751        1.4924580373
 H         -3.0247260550       -0.7656432424        3.8497363280
 H         -1.4851123097       -1.4974863322        3.3771033984
 H         -2.9694286378       -2.4623910126        3.3467000824
 H         -3.4858132826        0.5430239991       -0.1130903052
 H         -2.1876925604        3.0104584278        0.5567407562
 H         -2.5563821520        1.5829615853       -2.1344593643
 H         -2.0319187537        3.2595846954       -1.9583764310
 H         -3.6621124684        2.7856462432       -1.4435705713
 C          1.5368928740        2.4130740854        0.3384991181
 C          2.2610116828        2.4729242604       -0.8595980911
 C          2.1458117236        2.0241137106        1.5199170596
 C          3.6128266263        2.1233153637       -0.8320108820
 C          4.2231118333        1.7398919593        0.3451022481
 C          3.4910938162        1.6972104459        1.5226366803
 H          1.5457870272        1.9677858327        2.4149963184
 H          5.2657794509        1.4640293913        0.3476883701
 H          3.9656969186        1.3938458341        2.4431799275
 H          4.1777940872        2.1571781067       -1.7520374305
 C          1.6393201324        2.8823951870       -2.1258453206
 O          0.5331983864        3.3381200738       -2.2669309421
 H          2.3086932081        2.7392321159       -2.9973211151
