  56
        -94.14744789
 C         -4.0643758506       -0.9859209371       -0.7980728860
 C         -4.8976879064       -1.0055860692       -2.0676562587
 C         -3.5569936297        0.4324585586       -0.4833458557
 O         -3.5313904868        1.3277044113       -1.3149667169
 O         -2.4530635413       -2.0628429734        1.2478389656
 O         -2.0539543493       -4.1348399109       -2.3952846074
 N         -2.9048946478       -1.8494637017       -0.9526745392
 C         -2.2203332221       -2.3509430502        0.0826638450
 C         -1.1121198272       -3.3197983005       -0.3141018124
 C         -1.7034799695       -4.5171718228       -1.0902335569
 N         -0.1834514148       -2.6491047720       -1.2223512406
 N         -3.1324318925        0.5670766392        0.7785034771
 C         -2.5245690961        1.7853085988        1.2859773188
 C         -2.5790321959        1.7908343582        2.8042305357
 C         -1.0759727094        1.8607066189        0.7828901358
 O         -0.0975817238        1.7275902240        1.4967994003
 N         -0.9718396654        2.0610061556       -0.5366617244
 O          1.0356970094       -0.0940859520       -0.2322216155
 O          2.3483802965        1.7189044301        0.0308800743
 C          0.3339941486        2.0234337195       -1.1662313578
 C          1.2312505651        1.0889035274       -0.3480925519
 C          0.2119315122        1.4929643111       -2.5899732239
 H         -4.6460484569       -1.3431848837        0.0621497257
 H         -4.3407602822       -0.5447129650       -2.8799203462
 H         -5.8111217314       -0.4368294850       -1.9182101990
 H         -5.1544017319       -2.0270852375       -2.3361727344
 H         -1.2882860203       -3.6444115534       -2.7367649028
 H         -2.7089550569       -2.2175720660       -1.8745041338
 H         -0.6511169472       -3.6792868828        0.6185569727
 H         -2.6080386474       -4.8893008798       -0.6057133638
 H         -0.9616289164       -5.3284233638       -1.1183823205
 H          0.6574506027       -3.2112503845       -1.3212033692
 H          0.1127242902       -1.7559861698       -0.8371657188
 H         -2.9979709058       -0.2844248878        1.3272002213
 H         -3.0789246601        2.6326695492        0.8634632017
 H         -2.1426340001        2.7092990786        3.1862990079
 H         -2.0061035209        0.9521665529        3.1921730856
 H         -3.6076455979        1.7126534451        3.1456948435
 H         -1.8095853138        2.0762701135       -1.1154098566
 H          0.7830389488        3.0257707489       -1.1549806683
 H         -0.4866553933        2.1057732889       -3.1541936330
 H         -0.1492240656        0.4668805623       -2.5688723277
 H          1.1792095198        1.5148738566       -3.0852281677
 C          3.2433777034        1.0678793782        0.8665611712
 C          4.6045324101        1.0769006668        0.5345224720
 C          2.8048289956        0.4603036774        2.0321376540
 C          5.5093706462        0.4598866150        1.4010218230
 C          5.0735906503       -0.1507409311        2.5587246599
 C          3.7218050402       -0.1472580826        2.8726794894
 H          1.7529461259        0.4856198670        2.2694426228
 H          5.7818021058       -0.6266380027        3.2198396914
 H          3.3764275236       -0.6175800257        3.7808825010
 H          6.5548263754        0.4768317576        1.1313726770
 C          5.0870405931        1.7077888785       -0.6989621389
 O          6.2349859223        1.7219874429       -1.0652276478
 H          4.2900685547        2.1878379130       -1.2972998476
