  56
        -94.14742221
 C         -1.6758524264       -1.6436219075       -2.1368495133
 C         -0.8708485599       -1.1416267369       -3.3229531358
 C         -2.6230075260       -0.5573487618       -1.6067304305
 O         -2.6357863110        0.5901071158       -2.0106528707
 O         -2.1139893994       -3.6046322686       -0.1838063427
 O          1.8571938774       -3.1431644605       -0.3879663716
 N         -0.7816009291       -1.9905197221       -1.0390134728
 C         -1.1237889247       -2.8950905866       -0.1015903692
 C         -0.1421795801       -3.0097759193        1.0597493143
 C          1.1091515021       -3.7906886843        0.6033332909
 N          0.2349381684       -1.6790305411        1.5170289712
 N         -3.3946674062       -0.9918026780       -0.5897555360
 C         -3.9670909532       -0.0621629494        0.3737945170
 C         -4.9172882070       -0.7910557875        1.3058497793
 C         -2.7558427446        0.5136242867        1.1287577732
 O         -2.2843361473       -0.0130189220        2.1198093388
 N         -2.2390480446        1.6198062032        0.5557054523
 O          0.0892494434        0.6948058769       -0.5427978342
 O          1.3443530556        1.9166622318        0.8712176300
 C         -0.9939628709        2.1897852992        1.0180461979
 C          0.1905804640        1.4939262690        0.3484659859
 C         -0.9614704387        3.6897845063        0.7340069028
 H         -2.2505680438       -2.5429412904       -2.3858100490
 H         -0.1951628417       -1.9128640118       -3.6833455999
 H         -0.2984909469       -0.2678528767       -3.0223633215
 H         -1.5436132861       -0.8521727754       -4.1248441700
 H          1.2834233985       -2.9629071391       -1.1437434609
 H         -0.1170220138       -1.2674853876       -0.7816924525
 H         -0.6408792953       -3.6194909729        1.8326056514
 H          0.7888999240       -4.7885440542        0.2703547702
 H          1.7874996872       -3.9085841642        1.4528107588
 H          0.8540668063       -1.7607391894        2.3180426917
 H         -0.5888860830       -1.1665385343        1.8274801587
 H         -3.3088783714       -1.9563205488       -0.2896005703
 H         -4.4764904121        0.7354936937       -0.1770003628
 H         -5.3972709161       -0.0824513198        1.9752518563
 H         -4.3614023387       -1.5086808583        1.9051421495
 H         -5.6791644946       -1.3134202827        0.7336600442
 H         -2.4922500459        1.8060051454       -0.4108016828
 H         -0.9242342859        1.9989263067        2.0957314434
 H         -1.8180690008        4.1689260113        1.2005868741
 H         -1.0004585081        3.8685243437       -0.3385195843
 H         -0.0519333676        4.1275506798        1.1347383183
 C          2.5493111582        1.3826340152        0.4160150382
 C          3.6016255404        2.2652873486        0.1353372455
 C          2.7208425664        0.0159053927        0.2781152580
 C          4.8209627748        1.7370552956       -0.2930922250
 C          4.9881770014        0.3755180358       -0.4477547719
 C          3.9375559474       -0.4822625021       -0.1595362202
 H          1.9135770220       -0.6603159413        0.5191514828
 H          5.9336604137       -0.0181901674       -0.7880994249
 H          4.0446629703       -1.5499849059       -0.2725182566
 H          5.6212178421        2.4311846801       -0.5023454885
 C          3.4484405102        3.7178510445        0.2766279633
 O          4.3067116820        4.5291433644        0.0401670648
 H          2.4487028399        4.0319742847        0.6304299957
