  56
        -94.14738766
 C          0.7713542379        2.7126349377        1.2909676983
 C          1.7464605334        3.8251856114        1.6651034671
 C          1.3452370527        1.8030582011        0.1911714707
 O          0.8041989543        1.6925853194       -0.8976527480
 O         -1.7827785178        1.6027890181        1.6203111903
 O         -1.2957928997        3.2694300644       -1.9156847322
 N         -0.4753674370        3.2811387788        0.8324407927
 C         -1.6342637000        2.5868605965        0.9202238281
 C         -2.7617027734        3.1618115957        0.0631699129
 C         -2.4954866269        2.7555835990       -1.4098895814
 N         -4.0686385293        2.6714077544        0.4557920542
 N          2.4951079891        1.1977743380        0.5150307778
 C          3.1168914410        0.1890564540       -0.3206084830
 C          4.5996961064        0.4932504609       -0.5179446038
 C          2.9414797100       -1.1484063186        0.4151973588
 O          3.1108926898       -1.2242863469        1.6155244104
 N          2.6193138497       -2.1876517569       -0.3765719172
 O         -0.2594556810       -4.0817438468       -0.2663325602
 O          0.1529781502       -2.0162271787        0.5288662046
 C          2.0323384963       -3.3912374442        0.1764114953
 C          0.5103190606       -3.2420106207        0.1025525849
 C          2.4899691873       -4.6335981597       -0.5713757941
 H          0.5313853773        2.0879160792        2.1595958339
 H          2.6631058833        3.4185240534        2.0817327275
 H          1.2886117259        4.4788062326        2.4034474634
 H          1.9957713136        4.4145067673        0.7849652520
 H         -0.5578830135        2.6792876367       -1.6678185456
 H         -0.4051751829        3.9568149347        0.0821679237
 H         -2.7540675144        4.2549721084        0.1250547107
 H         -3.3058226366        3.1672675585       -2.0174059564
 H         -2.5278890197        1.6615668548       -1.4782668838
 H         -4.3218071019        3.0612063821        1.3583766641
 H         -4.0027150491        1.6646256029        0.5842794729
 H          2.7892920898        1.1660219759        1.4817651169
 H          2.5846172664        0.1862845618       -1.2753691220
 H          5.0460655195       -0.2517714405       -1.1707156156
 H          5.1117613165        0.4687212343        0.4414458003
 H          4.7261882139        1.4764031042       -0.9643701104
 H          2.3280836524       -1.9925455216       -1.3265021070
 H          2.3235590138       -3.4294258410        1.2336233596
 H          1.9976297340       -5.5100880849       -0.1610129019
 H          3.5663798311       -4.7485994660       -0.4827936702
 H          2.2226207007       -4.5508761382       -1.6219045088
 C         -1.1472467179       -1.6007871246        0.3019158256
 C         -1.5937781615       -1.3564738754       -1.0063705248
 C         -1.9868926393       -1.4094369455        1.3848727283
 C         -2.9184960114       -0.9489291496       -1.1857791270
 C         -3.7625652448       -0.7797841255       -0.1072994862
 C         -3.2907219039       -0.9953790982        1.1796736460
 H         -1.6073899516       -1.5831322216        2.3788132528
 H         -4.7854327246       -0.4736267096       -0.2687787356
 H         -3.9399363594       -0.8458765264        2.0283689940
 H         -3.2763802388       -0.7681343708       -2.1894690317
 C         -0.7277724640       -1.4821924096       -2.1776548860
 O          0.4407151282       -1.7917393519       -2.1919271992
 H         -1.2499385904       -1.2469848118       -3.1246545202
