  56
        -94.14738692
 C          0.7738196526        2.7235632913        1.2815883681
 C          1.7474678347        3.8413412964        1.6436837449
 C          1.3459327265        1.8087047017        0.1852385057
 O          0.8030951452        1.6926303641       -0.9020895456
 O         -1.7747604481        1.6031134235        1.6192753980
 O         -1.3029997762        3.2608555756       -1.9214140571
 N         -0.4764732091        3.2856414190        0.8248885460
 C         -1.6321343344        2.5864328783        0.9169564776
 C         -2.7638936250        3.1548588267        0.0612026494
 C         -2.5000653231        2.7451130472       -1.4112932685
 N         -4.0681739550        2.6614455430        0.4588020714
 N          2.4967965963        1.2057532874        0.5101889378
 C          3.1170527339        0.1924167968       -0.3209713953
 C          4.6000822675        0.4940960049       -0.5205731740
 C          2.9409728622       -1.1414460019        0.4211510229
 O          3.1100869367       -1.2117248464        1.6218680330
 N          2.6191657415       -2.1844086983       -0.3658336555
 O         -0.2556043157       -4.0844660261       -0.2509852751
 O          0.1508366334       -2.0132087079        0.5322914446
 C          2.0337210519       -3.3861709169        0.1927407919
 C          0.5115772315       -3.2409308362        0.1146663738
 C          2.4962575442       -4.6318983372       -0.5464209340
 H          0.5397021379        2.1038999383        2.1553948059
 H          2.6675456738        3.4398610309        2.0577692697
 H          1.2916817010        4.4982154717        2.3804101415
 H          1.9903168666        4.4258850720        0.7585523685
 H         -0.5628558922        2.6737311865       -1.6729899376
 H         -0.4109685516        3.9594397068        0.0724988019
 H         -2.7598381582        4.2482198892        0.1198364242
 H         -3.3129868032        3.1524841221       -2.0182709636
 H         -2.5293591177        1.6508025706       -1.4762769707
 H         -4.3191166128        3.0514629925        1.3619297499
 H         -3.9993668823        1.6549479549        0.5879291349
 H          2.7920202510        1.1786128990        1.4767651952
 H          2.5842402291        0.1856244182       -1.2754034181
 H          5.0452791429       -0.2544525869       -1.1701048691
 H          5.1126315821        0.4734442054        0.4386555794
 H          4.7274585498        1.4750267891       -0.9716106866
 H          2.3277679921       -1.9938757932       -1.3166505142
 H          2.3226473643       -3.4174323902        1.2508152574
 H          2.2313391112       -4.5562027589       -1.5980843584
 H          2.0050799406       -5.5070967105       -0.1319322314
 H          3.5727351089       -4.7436852755       -0.4544714976
 C         -1.1497983478       -1.6017161559        0.3008432741
 C         -1.5938440061       -1.3632760570       -1.0093739232
 C         -1.9924598643       -1.4084784451        1.3811384510
 C         -2.9188258887       -0.9585765259       -1.1933317897
 C         -3.7657177794       -0.7870679346       -0.1174229076
 C         -3.2966332414       -0.9978332436        1.1713840542
 H         -1.6149859764       -1.5779715959        2.3765622752
 H         -4.7884763271       -0.4823744925       -0.2822621090
 H         -3.9481992157       -0.8467922220        2.0180345914
 H         -3.2746084636       -0.7817076837       -2.1984653715
 C         -0.7251885848       -1.4926937575       -2.1783320971
 O          0.4440003357       -1.7996831211       -2.1888093186
 H         -1.2459829837       -1.2630607741       -3.1274674494
