  56
        -94.14737335
 C         -0.9990604947       -0.8424597387       -2.5391156347
 C          0.0569481402       -1.2480662239       -3.5530977668
 C         -0.7867463277        0.6050700890       -2.0530069960
 O          0.2170333045        1.2415178218       -2.3275364734
 O         -3.1149092245       -1.4529300640       -0.8231963689
 O         -1.6269779499       -1.7301367024        2.5143781642
 N         -0.9556103010       -1.7303792554       -1.3858762963
 C         -2.0397996198       -1.9924883528       -0.6248984992
 C         -1.8309961429       -3.0581284381        0.4533757708
 C         -0.9375987225       -2.5249862737        1.6030987342
 N         -3.0852121702       -3.5441968819        0.9897151836
 N         -1.8114497903        1.0544688581       -1.3182177366
 C         -1.7257279127        2.1999106302       -0.4311917799
 C         -3.0349915142        2.9787334159       -0.4395495651
 C         -1.4611462552        1.5957407100        0.9557634440
 O         -2.1777661129        0.7028316434        1.3790549229
 N         -0.4054919165        2.0848985679        1.6239449027
 O          2.2434349033       -0.0083111781        2.7568314461
 O          1.1836011985        0.3742862136        0.8026299702
 C          0.2149023650        1.3420596495        2.7029956413
 C          1.3459619584        0.4779042017        2.1328188883
 C          0.7630467470        2.2707165266        3.7794632778
 H         -2.0069046733       -0.9218667812       -2.9645137226
 H         -0.0865211563       -2.2812269011       -3.8592852078
 H          1.0500754697       -1.1300875650       -3.1235656116
 H         -0.0115151516       -0.6050469075       -4.4255867373
 H         -1.9592909266       -0.9198516827        2.0797522408
 H         -0.0659991674       -2.1495132932       -1.1656142695
 H         -1.3006773797       -3.8972478677       -0.0245280819
 H         -0.0753684401       -1.9923194852        1.1742126530
 H         -0.5718633965       -3.3802240379        2.1780489982
 H         -3.8438499874       -3.2834561191        0.3655218510
 H         -3.2616813803       -3.0791264773        1.8776539802
 H         -2.5666213983        0.4033532563       -1.1022020104
 H         -0.8845689637        2.8174056710       -0.7569938066
 H         -3.8393621015        2.3394207105       -0.0826187113
 H         -3.2661616408        3.3131027434       -1.4474477617
 H         -2.9571083742        3.8440981761        0.2130983562
 H          0.2286862899        2.6926252952        1.1142129703
 H         -0.5397143069        0.6675450070        3.1283434042
 H          1.2983346850        1.6857405900        4.5216342167
 H         -0.0501403084        2.8063189285        4.2604210892
 H          1.4500306444        2.9897773746        3.3387865594
 C          2.1606039178       -0.1277811623       -0.0325868133
 C          2.5685129508        0.6988613881       -1.0899161111
 C          2.6612641961       -1.4114805509        0.1066082895
 C          3.4570281785        0.1790577826       -2.0276441750
 C          3.9511940626       -1.1060881742       -1.8991342539
 C          3.5640712880       -1.8944510609       -0.8271345330
 H          2.3529005294       -2.0186286601        0.9440435980
 H          4.6427644543       -1.4939701626       -2.6312929325
 H          3.9582865614       -2.8931581849       -0.7172293552
 H          3.7630838158        0.8004300693       -2.8557846021
 C          2.1104582243        2.0965490600       -1.2130114094
 O          1.6071085590        2.7604618088       -0.3372064537
 H          2.3716533523        2.5488298596       -2.1834301294
