  56
        -94.14737315
 C         -1.2925353600       -1.4322915640       -2.4305035033
 C         -0.7450505344       -0.8040019129       -3.7003164785
 C         -2.3381612889       -0.5233213077       -1.7626894309
 O         -2.5738013060        0.6143939236       -2.1393524243
 O         -1.2180302417       -3.3371327309       -0.3579152058
 O          1.0976239681       -4.9676142555        0.2891540899
 N         -0.2185409591       -1.6544036586       -1.4794391278
 C         -0.2801153367       -2.5570474376       -0.4988432910
 C          0.9198757210       -2.5356041796        0.4428343298
 C          1.0302253445       -3.8853968866        1.1829819583
 N          2.1146298770       -2.1656921919       -0.3007797870
 N         -2.9364427428       -1.1048701513       -0.7144205602
 C         -3.7771107497       -0.3821934229        0.2277669034
 C         -4.5452703049       -1.3668127663        1.0912094985
 C         -2.8500358760        0.5079890737        1.0790228431
 O         -2.4968963512        0.2334494386        2.2049405764
 N         -2.4747876424        1.6307711784        0.4246278996
 O          0.1015111967        0.9803821665       -0.2025773772
 O          0.9140834458        2.8036647100        0.8330953208
 C         -1.4265522871        2.4754796669        0.9395609572
 C         -0.0716737270        1.9739013159        0.4477878645
 C         -1.6578426273        3.9287294378        0.5333591451
 H         -1.7546918045       -2.4060926068       -2.6353986962
 H         -1.5481397625       -0.6650498251       -4.4183735234
 H          0.0222395342       -1.4377148866       -4.1364535475
 H         -0.3215874605        0.1702206567       -3.4692694845
 H          0.2381701762       -5.0200222212       -0.1503648932
 H          0.5385958822       -0.9855132657       -1.4424475118
 H          0.7174288473       -1.7506148910        1.1814822481
 H          0.1784883202       -3.9930315157        1.8656161169
 H          1.9550188892       -3.9035450920        1.7651358399
 H          2.8509100735       -1.9231792146        0.3548342696
 H          2.4312912084       -2.9776714753       -0.8250029189
 H         -2.6272729730       -2.0321461731       -0.4329020949
 H         -4.4554685963        0.2606991554       -0.3458429263
 H         -5.2178362530       -0.8304372830        1.7546090944
 H         -3.8479062682       -1.9370468473        1.7000678917
 H         -5.1220267473       -2.0464890813        0.4696192787
 H         -2.6309193611        1.6556026945       -0.5826659529
 H         -1.4347802184        2.3740913782        2.0331253498
 H         -1.6609350724        4.0153121602       -0.5511250772
 H         -0.8761559639        4.5628554415        0.9409173931
 H         -2.6201638273        4.2619435925        0.9118783780
 C          2.2125365163        2.5333623235        0.4121833632
 C          2.9224099268        1.4214480468        0.8763314529
 C          2.7936714956        3.4142345629       -0.4863103671
 C          4.2181101552        1.2109835904        0.3995247801
 C          4.7976491824        2.0878572385       -0.4936830996
 C          4.0865200743        3.1957915798       -0.9301678059
 H          2.2234961636        4.2635499072       -0.8299995885
 H          5.8009803560        1.9138604976       -0.8503445061
 H          4.5340580272        3.8887591096       -1.6261481975
 H          4.7526127573        0.3460313576        0.7623683077
 C          2.3668500371        0.4912562970        1.8684599905
 O          2.8817451729       -0.5536476035        2.1776967628
 H          1.4284969786        0.8249274435        2.3474907393
