  56
        -94.14734114
 C          2.0834026251       -2.0621367551       -0.0643402490
 C          3.3540586765       -2.8208697202       -0.4361064547
 C          0.8509919410       -2.9631260504       -0.2738454641
 O          0.6808349882       -3.5551963537       -1.3187120865
 O          2.2474681714        0.7300932359        0.5664854318
 O          3.6874612241        2.6198175098       -0.9998940321
 N          1.8909128635       -0.9225337490       -0.9389895811
 C          1.9844984625        0.3521180665       -0.5710284500
 C          1.7330990216        1.3385630744       -1.7192996230
 C          2.3362068417        2.7151449842       -1.3602437093
 N          2.2486759476        0.7590572719       -2.9497609937
 N          0.0021988103       -3.0048713024        0.7681866704
 C         -1.3054947258       -3.6176767617        0.6570424446
 C         -1.8603889232       -3.9243829156        2.0428440777
 C         -2.3110747244       -2.7359934809       -0.1080428819
 O         -3.2949815614       -3.2006167979       -0.6398903964
 N         -2.0104899991       -1.4236696063       -0.1024594799
 O         -3.4089084332        1.8037589420       -0.2265786660
 O         -1.3025022097        1.0706184225        0.1361175427
 C         -2.7894853712       -0.4527576555       -0.8362936313
 C         -2.5786617086        0.9412375305       -0.2705654640
 C         -2.3857083659       -0.4331938540       -2.3194617705
 H          2.1376478212       -1.6803675932        0.9582957830
 H          4.2120479320       -2.1532335254       -0.4242786115
 H          3.2406749955       -3.2481059149       -1.4297352597
 H          3.5226656567       -3.6278193916        0.2718616684
 H          3.7236082146        2.1130065296       -0.1763348822
 H          1.7455509241       -1.1163641600       -1.9229738357
 H          0.6464043390        1.4518769230       -1.8216429333
 H          1.7447879530        3.1686100857       -0.5538458002
 H          2.2966941289        3.3702081097       -2.2354245175
 H          3.2647941664        0.7788233650       -2.9216878058
 H          1.9616973334        1.3137795151       -3.7491141684
 H          0.1414704337       -2.3716668045        1.5449482923
 H         -1.1963189896       -4.5386914420        0.0740133119
 H         -1.9447157557       -3.0068321543        2.6224093341
 H         -1.2078480528       -4.6171061187        2.5687585353
 H         -2.8465114636       -4.3700756558        1.9483185738
 H         -1.1979192340       -1.0832937820        0.3950849694
 H         -3.8508183990       -0.7156142675       -0.7594255991
 H         -2.9732096514        0.3032670722       -2.8613662387
 H         -2.5694325212       -1.4173112580       -2.7415666012
 H         -1.3269846170       -0.2007323770       -2.4184702267
 C         -0.8002291261        2.2072486470        0.7328805116
 C          0.1580435590        2.0134400910        1.7429837098
 C         -1.1489507534        3.4864191609        0.3276838561
 C          0.7563876766        3.1344720533        2.3164158698
 C          0.4045154317        4.4088933799        1.9173858718
 C         -0.5503757949        4.5819089758        0.9276123808
 H         -1.8863666677        3.6225115405       -0.4464829627
 H          0.8743928567        5.2673613565        2.3717706048
 H         -0.8274684047        5.5752219719        0.6096195289
 H          1.5044841407        2.9896197688        3.0811085658
 C          0.5462470727        0.6784814243        2.2110687768
 O          0.0033614382       -0.3692375924        1.9320346580
 H          1.3620704929        0.7023672157        2.9523949678
