  56
        -94.14733856
 C          2.0997910360       -2.0451216793       -0.0664078812
 C          3.3760197290       -2.7956054286       -0.4359753325
 C          0.8738229380       -2.9540192638       -0.2793968237
 O          0.7089366157       -3.5448312814       -1.3258424605
 O          2.2435738699        0.7473571694        0.5679093050
 O          3.6718456433        2.6523492849       -0.9866116758
 N          1.9025441965       -0.9059450716       -0.9404520761
 C          1.9868836012        0.3688774014       -0.5708818768
 C          1.7329461654        1.3546790035       -1.7191326328
 C          2.3220868732        2.7360500253       -1.3552714999
 N          2.2606591714        0.7811676489       -2.9472718092
 N          0.0246028950       -3.0048616268        0.7618628906
 C         -1.2770506104       -3.6299741697        0.6494733406
 C         -1.8260071496       -3.9511337646        2.0343931365
 C         -2.2938742037       -2.7546065978       -0.1079507334
 O         -3.2781647848       -3.2260401750       -0.6331379417
 N         -2.0024540063       -1.4402909119       -0.1042367877
 O         -3.4285630225        1.7747814853       -0.2046787089
 O         -1.3119812699        1.0596930330        0.1323183065
 C         -2.7954006521       -0.4740576454       -0.8292753692
 C         -2.5913285470        0.9198181505       -0.2608872399
 C         -2.4038393719       -0.4471536984       -2.3155291689
 H          2.1492666740       -1.6639457154        0.9566894174
 H          3.2671841640       -3.2233714377       -1.4298938627
 H          3.5485843234       -3.6015514534        0.2721786638
 H          4.2296446992       -2.1224269149       -0.4225183262
 H          3.7072666023        2.1441932386       -0.1638052992
 H          1.7619489921       -1.0996507775       -1.9251323732
 H          0.6458386654        1.4583468074       -1.8273688556
 H          1.7217672869        3.1837843932       -0.5522746428
 H          2.2822549353        3.3914408396       -2.2301998872
 H          3.2763773219        0.8099084921       -2.9133897937
 H          1.9733056344        1.3341902888       -3.7476541564
 H          0.1583339122       -2.3726954236        1.5404265974
 H         -1.1594175110       -4.5462333553        0.0606036574
 H         -2.8080944656       -4.4054129065        1.9387704948
 H         -1.9178120235       -3.0382845110        2.6202133169
 H         -1.1658909879       -4.6411307067        2.5543818958
 H         -1.1896726297       -1.0941198906        0.3888629321
 H         -3.8538399164       -0.7459433879       -0.7444409713
 H         -3.0019754837        0.2857197742       -2.8506084215
 H         -2.5826209811       -1.4316197629       -2.7389289189
 H         -1.3480138239       -0.2053040323       -2.4224179418
 C         -0.8168430940        2.1996757450        0.7289213762
 C          0.1420312918        2.0135010742        1.7397213444
 C         -1.1744322657        3.4758876718        0.3222087137
 C          0.7320370750        3.1393341178        2.3124482064
 C          0.3714790059        4.4108268681        1.9118388085
 C         -0.5839830084        4.5762237133        0.9212754683
 H         -1.9123472955        3.6056676672       -0.4526070203
 H          0.8351199185        5.2730231543        2.3655740713
 H         -0.8676736775        5.5672571841        0.6019992760
 H          1.4806174097        3.0005332266        3.0777872258
 C          0.5393454536        0.6816273573        2.2090280836
 O          0.0053420985       -0.3702556535        1.9286339737
 H          1.3532444433        0.7119007679        2.9522471672
