  56
        -94.14733278
 C          1.8801348174       -2.8569047671       -0.0609928858
 C          2.6806201622       -3.9826668733       -0.7002552423
 C          0.4069997196       -2.9652516431       -0.4802371619
 O          0.0821915601       -2.9528217291       -1.6563271306
 O          0.6930477657       -0.3877073047        0.4069505592
 O          3.4609986747        2.8466130178       -0.3239408282
 N          2.3709032284       -1.5744126000       -0.5184962480
 C          1.6957994837       -0.4395792544       -0.2901812960
 C          2.3224339858        0.7824977208       -0.9410160828
 C          3.0913560213        1.5777886157        0.1301588807
 N          3.2457157976        0.3875853062       -2.0015194524
 N         -0.4714125771       -3.1178376696        0.5223645122
 C         -1.9002250292       -3.2523707995        0.2939989981
 C         -2.5443877370       -3.9694522936        1.4697854063
 C         -2.5497178422       -1.8675338182        0.0754335314
 O         -3.3324647804       -1.3751192346        0.8571633775
 N         -2.1806349918       -1.3076083953       -1.0924260551
 O         -0.6815355888        1.5123914460       -1.4658928845
 O         -1.9328607718        1.2550304709        0.3930691533
 C         -2.6017490583        0.0244692257       -1.4781990475
 C         -1.6106919418        1.0241658595       -0.8742918128
 C         -2.6590825541        0.1453215084       -2.9920437193
 H          1.9573251754       -2.8977648042        1.0341837691
 H          2.5190109554       -3.9751067034       -1.7756468230
 H          2.3569606675       -4.9426823780       -0.3064104457
 H          3.7401981688       -3.8554933444       -0.4928148530
 H          2.6504628562        3.3417145789       -0.5473036232
 H          3.1362041902       -1.5123611793       -1.1789407206
 H          1.4982766800        1.4155853580       -1.2994782827
 H          4.0206150665        1.0510497980        0.3662792994
 H          2.4752576694        1.6374590755        1.0379708829
 H          2.7363988340        0.2213961597       -2.8638265133
 H          3.8851193216        1.1585960026       -2.1706815037
 H         -0.1907951629       -2.8809666184        1.4614266937
 H         -2.0175593970       -3.8306125679       -0.6303229378
 H         -3.5966924169       -4.1389024169        1.2619331069
 H         -2.4745201128       -3.3523039704        2.3622887605
 H         -2.0566547492       -4.9245100335        1.6477613183
 H         -1.4334733591       -1.7405320300       -1.6287108800
 H         -3.5766141827        0.1966111163       -1.0064325759
 H         -3.0316218770        1.1253491978       -3.2769428795
 H         -3.3152819487       -0.6177382937       -3.4012896660
 H         -1.6620371355        0.0207567260       -3.4075948485
 C         -1.0428727089        1.8156135729        1.2900528963
 C         -0.1680476136        2.8559049101        0.9788968612
 C         -1.0452611965        1.2493137916        2.5578043379
 C          0.7281138073        3.2869675348        1.9595011463
 C          0.7177906172        2.7333725159        3.2236604410
 C         -0.1766825465        1.7165370535        3.5245260191
 H         -1.7337071962        0.4417715105        2.7489544377
 H          1.4096037839        3.0887437738        3.9720313007
 H         -0.1880755420        1.2795488125        4.5115247640
 H          1.4173662582        4.0805271519        1.7099121770
 C         -0.1536147902        3.5388755013       -0.3300580257
 O          0.8495972692        3.9493172769       -0.8633682923
 H         -1.1507620146        3.7637163528       -0.7488746777
