  56
        -94.14732137
 C         -1.0280901052       -2.8430323136       -1.4801555861
 C         -1.1124458848       -2.7115348085       -2.9919017787
 C         -2.2192672332       -2.1626140848       -0.7923343188
 O         -3.0370953713       -1.4806046914       -1.3846245934
 O          0.3586438724       -3.5425886470        0.8167412397
 O          3.1568273213       -1.7800735817       -1.5321343571
 N          0.1918592111       -2.2082323828       -0.9934294163
 C          0.7833909454       -2.6042646046        0.1549936380
 C          1.9965448905       -1.8023139839        0.6326443566
 C          2.7012403885       -0.9911355747       -0.4615801232
 N          1.5964170514       -0.9096404160        1.7132180165
 N         -2.2320877818       -2.3573771541        0.5384838184
 C         -2.9966904416       -1.4993535280        1.4327533437
 C         -2.9192093103       -2.0242303187        2.8543700556
 C         -2.3440199245       -0.1134207011        1.2970380260
 O         -1.3773348955        0.2334256126        1.9529693423
 N         -2.8861836376        0.6534656342        0.3337371304
 O         -0.1871472310        0.6793132378       -0.6627191706
 O         -0.0380794043        2.5474421178        0.5769406370
 C         -2.2032946445        1.8722503137       -0.0657007278
 C         -0.7015675322        1.6093810791       -0.0909522007
 C         -2.6641310672        2.2994126505       -1.4527915756
 H         -0.9854116966       -3.8941000664       -1.1722131317
 H         -1.1473618944       -1.6603168707       -3.2682884805
 H         -2.0215630846       -3.1864025708       -3.3492602131
 H         -0.2539567101       -3.1810522329       -3.4651565464
 H          2.4069151599       -2.2607957528       -1.9037742181
 H          0.3349406741       -1.2583090941       -1.3117002371
 H          2.7074791459       -2.5266277596        1.0492379823
 H          3.5884786032       -0.5274862092       -0.0256020437
 H          2.0424636803       -0.1853017687       -0.8117300475
 H          1.2651138996       -1.4542216438        2.5025896014
 H          0.8240911695       -0.3177413445        1.4204439363
 H         -1.4844107875       -2.9078705986        0.9525183103
 H         -4.0313454418       -1.4578564754        1.0750251578
 H         -1.8955272767       -1.9508077052        3.2146416235
 H         -3.2407841926       -3.0616994714        2.8919513469
 H         -3.5557520438       -1.4298696064        3.5041573712
 H         -3.4504110973        0.1911646063       -0.3738016482
 H         -2.3922010177        2.6566265429        0.6765721456
 H         -2.0820154294        3.1514205511       -1.7920595934
 H         -3.7172504515        2.5669740132       -1.4279892036
 H         -2.5184993813        1.4792137987       -2.1525260144
 C          1.3472470572        2.4852460749        0.6111323407
 C          2.1114346534        2.6773608857       -0.5482268315
 C          1.9562045067        2.2257404859        1.8277894494
 C          3.5018445948        2.5909329330       -0.4456199350
 C          4.1090788234        2.3408475668        0.7679074460
 C          3.3356677767        2.1610144648        1.9053565889
 H          1.3359210184        2.0631291972        2.6942209057
 H          5.1847135266        2.2793715224        0.8292251313
 H          3.8057818526        1.9556862758        2.8540326104
 H          4.0980615736        2.7295674213       -1.3355823177
 C          1.5036632972        2.9784407549       -1.8493400814
 O          0.3536188728        3.2768697437       -2.0520273474
 H          2.2287719931        2.9211107033       -2.6852383167
