  56
        -94.14732076
 C          2.4413778075       -1.0529685672        1.2254402403
 C          3.6881376993       -1.8057610234        1.6916695472
 C          1.6922191116       -1.9025271488        0.1943057833
 O          1.8707310343       -1.7379682000       -1.0047711288
 O          1.4972936880        1.5249135336        1.8798580750
 O          1.9419018239        3.2806337210       -2.3125824723
 N          2.8043632246        0.1975944499        0.5951747156
 C          2.1989685035        1.3593868771        0.8968426213
 C          2.4779521019        2.5001843508       -0.0858826098
 C          1.7240576240        2.2386967998       -1.4049720569
 N          2.0311894819        3.7918938756        0.4128711218
 N          0.9162570351       -2.8604142717        0.7105755113
 C          0.1976739465       -3.8232121638       -0.1047094734
 C         -0.0422708261       -5.0928825425        0.6970947084
 C         -1.1388311173       -3.2410932432       -0.6117570817
 O         -2.2172237423       -3.7086693063       -0.3211985174
 N         -0.9659790460       -2.1985119009       -1.4461423436
 O         -3.4547774437        0.3989302104       -1.5227035428
 O         -1.4384842240        0.2187923642       -0.5336187603
 C         -2.0811920878       -1.5076981688       -2.0373349317
 C         -2.4282179238       -0.1948689305       -1.3413824557
 C         -1.8128277254       -1.2050421334       -3.5137039609
 H          1.7921809674       -0.8158468621        2.0710939471
 H          4.2490016919       -1.1947926678        2.3943011318
 H          4.3244410039       -2.0357811933        0.8397395567
 H          3.4053048077       -2.7351053988        2.1781341024
 H          1.8757264491        4.1028216977       -1.8055129600
 H          3.2401613890        0.0932094354       -0.3110846141
 H          3.5512976410        2.5605337323       -0.2967568746
 H          0.6517568522        2.1411687633       -1.1787265653
 H          2.0656909228        1.3184815807       -1.8840833251
 H          2.6238251183        4.0956033239        1.1780597515
 H          1.0940196623        3.6847067526        0.7959147028
 H          0.6091585945       -2.7735082038        1.6677291402
 H          0.8257889095       -4.0260232530       -0.9810551856
 H          0.8976153741       -5.4970142910        1.0646325262
 H         -0.5301187419       -5.8334062436        0.0704568015
 H         -0.7002257608       -4.8783468335        1.5355306442
 H         -0.0328926241       -1.8336094670       -1.5994964438
 H         -2.9566233987       -2.1615964911       -1.9361870820
 H         -1.6575901028       -2.1328003744       -4.0576208262
 H         -0.9231100090       -0.5860951883       -3.6141418700
 H         -2.6616345678       -0.6793748738       -3.9421770953
 C         -1.5483998798        1.4372000253        0.1095278737
 C         -1.2419180585        1.5139232433        1.4760210975
 C         -1.9054411954        2.5809579984       -0.5934183388
 C         -1.3121213203        2.7578233854        2.1054944287
 C         -1.6667664070        3.8931045059        1.4055419804
 C         -1.9624790161        3.8023598744        0.0535884692
 H         -2.1341294622        2.5110685556       -1.6451980176
 H         -1.7110074353        4.8480664577        1.9065711928
 H         -2.2341466159        4.6854109514       -0.5039350829
 H         -1.0643317531        2.8182636743        3.1543718774
 C         -0.8123228769        0.3534861062        2.2615360110
 O         -0.6142318285       -0.7656016147        1.8554897870
 H         -0.6809372643        0.5942091782        3.3330474841
