  56
        -94.14731795
 C          2.4984455448       -0.8920020758        1.1998704868
 C          3.7937092389       -1.5687750625        1.6511372983
 C          1.7901712799       -1.7863501533        0.1779724529
 O          1.9336661471       -1.6075104602       -1.0234223417
 O          1.4273182428        1.6256988378        1.8875062190
 O          1.7611592758        3.4717144414       -2.2787664753
 N          2.7793125113        0.3792017949        0.5697028339
 C          2.1258251667        1.5074273267        0.8953858211
 C          2.3449867730        2.6758571990       -0.0700712516
 C          1.5939215772        2.4055040608       -1.3886608536
 N          1.8459131810        3.9375748562        0.4550768448
 N          1.0946040123       -2.7984814028        0.7060707304
 C          0.4365013725       -3.8127252055       -0.0976347202
 C          0.3090676154       -5.0975819893        0.7058667459
 C         -0.9494162065       -3.3333353136       -0.5779470001
 O         -1.9843050907       -3.8757848866       -0.2603038070
 N         -0.8712715711       -2.2870054628       -1.4218449228
 O         -3.5020016813        0.1691049685       -1.4999009449
 O         -1.4674644727        0.1057843393       -0.5339224200
 C         -2.0472849422       -1.6827585084       -1.9894551709
 C         -2.4460661264       -0.3713466321       -1.3195982954
 C         -1.8565552208       -1.4150980188       -3.4847216032
 H          1.8461169745       -0.6952749316        2.0535019647
 H          4.3234243564       -0.9264763963        2.3500267067
 H          4.4341683223       -1.7573087652        0.7921348587
 H          3.5733867901       -2.5148973462        2.1375467128
 H          1.6632699622        4.2812057868       -1.7566526317
 H          3.2128048358        0.3065987400       -0.3404887163
 H          3.4130789740        2.7876451980       -0.2868740509
 H          0.5281566748        2.2582569212       -1.1579451731
 H          1.9713068196        1.5094053542       -1.8862196030
 H          2.4281081077        4.2510725665        1.2243449027
 H          0.9155089109        3.7834101131        0.8386349897
 H          0.8007997601       -2.7357994454        1.6691712127
 H          1.0620512911       -3.9664876037       -0.9856948521
 H          1.2832543609       -5.4267303734        1.0585975601
 H         -0.1283707412       -5.8740603780        0.0855534214
 H         -0.3510215712       -4.9356742257        1.5543657302
 H          0.0287994131       -1.8541921267       -1.5948554040
 H         -2.8761882982       -2.3848558640       -1.8331462491
 H         -2.7503386621       -0.9507314365       -3.8919735920
 H         -1.6723991420       -2.3505350730       -4.0059243987
 H         -1.0076522449       -0.7523495713       -3.6421263360
 C         -1.6282739362        1.3297973255        0.0871156264
 C         -1.3115163927        1.4471105752        1.4483469041
 C         -2.0490583718        2.4410915473       -0.6324882111
 C         -1.4358958112        2.6977368367        2.0556898797
 C         -1.8524453831        3.8011043122        1.3388514133
 C         -2.1585463964        3.6703973490       -0.0075014587
 H         -2.2858038620        2.3399686101       -1.6799102325
 H         -1.9371739221        4.7623355460        1.8224474804
 H         -2.4787476941        4.5285172569       -0.5780369904
 H         -1.1797623509        2.7897378288        3.1002600834
 C         -0.8176293103        0.3235872795        2.2499936085
 O         -0.5545696679       -0.7871153697        1.8580713095
 H         -0.7018846883        0.5853189191        3.3182532239
