  56
        -94.14731617
 C          2.5031480334       -0.8703745450        1.1973045279
 C          3.8027643056       -1.5374646137        1.6507323630
 C          1.8027225628       -1.7705305310        0.1752739459
 O          1.9444002461       -1.5905583759       -1.0261403278
 O          1.4163896838        1.6388778793        1.8871424575
 O          1.7359358188        3.4985846839       -2.2730738943
 N          2.7754890088        0.4026474108        0.5670053018
 C          2.1151323681        1.5264655874        0.8945222751
 C          2.3275669742        2.6982506199       -0.0683334812
 C          1.5767010010        2.4277736849       -1.3870652054
 N          1.8223294989        3.9559917318        0.4605979664
 N          1.1162977519       -2.7888006056        0.7036018180
 C          0.4686939898       -3.8101382263       -0.0995573683
 C          0.3568669981       -5.0965595013        0.7037905111
 C         -0.9230105697       -3.3461523035       -0.5779015990
 O         -1.9512256878       -3.9019799193       -0.2616107495
 N         -0.8579406765       -2.2960113640       -1.4181829846
 O         -3.5045666080        0.1431247516       -1.5010989233
 O         -1.4706780670        0.0917635995       -0.5330076891
 C         -2.0414514856       -1.7040420834       -1.9831131684
 C         -2.4463041901       -0.3919592812       -1.3184650765
 C         -1.8618873824       -1.4442793682       -3.4811997164
 H          1.8484064445       -0.6781466535        2.0501259403
 H          3.5885639960       -2.4838545048        2.1393452349
 H          4.3277769473       -0.8899316160        2.3483325256
 H          4.4449377890       -1.7237369609        0.7925310649
 H          1.6338840688        4.3052561498       -1.7473131334
 H          3.2060099567        0.3326750725       -0.3448430641
 H          3.3948911879        2.8159374670       -0.2857468203
 H          0.5121638861        2.2725544227       -1.1558131588
 H          1.9596177383        1.5361761444       -1.8884835313
 H          2.4051886759        4.2720653741        1.2283087495
 H          0.8942946872        3.7950684378        0.8471562054
 H          0.8220035986       -2.7287229329        1.6667114864
 H          1.0947913016       -3.9564945879       -0.9884887023
 H          1.3353167050       -5.4151343980        1.0544376662
 H         -0.0734079255       -5.8776276997        0.0842416933
 H         -0.3031164133       -4.9419936134        1.5537525558
 H          0.0370441299       -1.8535790959       -1.5928123994
 H         -2.8638594265       -2.4117661681       -1.8177769733
 H         -1.6740651146       -2.3815962251       -3.9976788711
 H         -1.0189121585       -0.7763009452       -3.6480031950
 H         -2.7615983889       -0.9889954792       -3.8856414039
 C         -1.6381711770        1.3157095951        0.0862646736
 C         -1.3221648660        1.4363570036        1.4474250843
 C         -2.0650435705        2.4238160779       -0.6346337425
 C         -1.4537609474        2.6869123467        2.0533960909
 C         -1.8763652307        3.7871148959        1.3352330375
 C         -2.1814528045        3.6532118222       -0.0110227522
 H         -2.3009989634        2.3202184259       -1.6819864440
 H         -1.9666887699        4.7483645218        1.8177836325
 H         -2.5063558474        4.5088816223       -0.5825737198
 H         -1.1983084975        2.7815401559        3.0979027672
 C         -0.8217415031        0.3166803577        2.2503082323
 O         -0.5507335785       -0.7924667166        1.8593694837
 H         -0.7084264024        0.5799683070        3.3184472005
