  56
        -94.14730715
 C         -3.3722628042        1.3041400725       -0.8839619611
 C         -4.0307017665        1.9599795446       -2.0873114260
 C         -2.1397316999        2.1118902603       -0.4288423675
 O         -1.7027887317        3.0555136717       -1.0712227102
 O         -2.9361408059       -0.8470976040        0.9066984068
 O         -2.3760426250       -3.4810990057        1.2737630158
 N         -3.0135197931       -0.0628468852       -1.2067619990
 C         -2.8495181475       -1.0296165736       -0.3045948772
 C         -2.5727801799       -2.4043244910       -0.9174707821
 C         -3.0420475659       -3.5179495544        0.0463423428
 N         -3.1696627802       -2.4759282063       -2.2436093497
 N         -1.6453267827        1.7051419139        0.7419106881
 C         -0.5629341064        2.3710872715        1.4433380025
 C         -0.5863547408        1.9605427078        2.9069051333
 C          0.8163941971        2.0695025025        0.8207559139
 O          1.7127379207        1.5187772584        1.4330575158
 N          0.9441470812        2.5203087442       -0.4298697966
 O          4.1529820292        1.4557150395       -0.1571387763
 O          2.4259090570        0.0795999989       -0.6742772531
 C          2.1644251509        2.3590866068       -1.1959257613
 C          3.0400602794        1.2750621288       -0.5607129845
 C          1.8201426358        1.9897604854       -2.6363161136
 H         -4.0666473402        1.2656815239       -0.0335444592
 H         -3.3158406748        2.0358175090       -2.9028659241
 H         -4.3516385334        2.9645293580       -1.8275786880
 H         -4.8925839787        1.3826603851       -2.4119921583
 H         -2.5251239857       -2.5870501435        1.6299647320
 H         -2.8649542348       -0.3106757115       -2.1751076582
 H         -1.4854337983       -2.4809998200       -1.0337387241
 H         -2.8338418454       -4.4978988527       -0.3959437772
 H         -4.1321662293       -3.4252596775        0.1881661550
 H         -4.1806778703       -2.5387709782       -2.1642626419
 H         -2.8507983974       -3.3085548247       -2.7264632171
 H         -1.9958906942        0.8372252245        1.1386468576
 H         -0.7239418949        3.4534810903        1.3399265094
 H          0.2098476166        2.4684730740        3.4432538505
 H         -0.4181777867        0.8893523419        2.9895480684
 H         -1.5429107246        2.2118264449        3.3580719822
 H          0.1344721799        2.9310280257       -0.8937413528
 H          2.7426735301        3.2941889231       -1.1650478723
 H          1.2645037368        1.0556519976       -2.6479764685
 H          2.7273088532        1.8757594162       -3.2241170347
 H          1.2088040129        2.7729296730       -3.0787774914
 C          2.8244692398       -0.9880922592        0.0849102307
 C          1.8108977335       -1.7078842539        0.7426086829
 C          4.1524135117       -1.3639120003        0.2289059069
 C          2.1640472727       -2.7992064494        1.5372810505
 C          3.4845078286       -3.1775139769        1.6672083906
 C          4.4743615985       -2.4560561767        1.0159851349
 H          4.9246990090       -0.7951129039       -0.2621631666
 H          3.7473461457       -4.0258103274        2.2806066136
 H          5.5095188633       -2.7433703564        1.1235107719
 H          1.3831093476       -3.3486799622        2.0429067524
 C          0.4062286781       -1.3204382420        0.6407820365
 O         -0.0877143857       -0.5798682758       -0.1770740358
 H         -0.2276549773       -1.8016450976        1.4118114173
