  56
        -94.14729303
 C          0.8677195413        2.6854280435       -1.4948339569
 C          1.2932604185        2.7927217650       -2.9502408296
 C          1.8441211214        1.7863354091       -0.7062388898
 O          2.7906325344        1.2246722282       -1.2367743785
 O         -0.9378841422        2.8770090740        0.6759782779
 O         -3.4948510376        2.5700759191        1.6271171334
 N         -0.5044164513        2.2067562672       -1.4291509227
 C         -1.3220673649        2.4083964499       -0.3942805340
 C         -2.7825944924        2.0461287169       -0.6481672902
 C         -3.4358771612        1.5556821219        0.6650895471
 N         -3.4061714801        3.2446136735       -1.1935278878
 N          1.5781640384        1.7348891899        0.6017265478
 C          2.4406602537        1.1005883609        1.5861545777
 C          2.0411119681        1.5639320419        2.9769237004
 C          2.3463846740       -0.4327947432        1.4770078726
 O          1.7141594167       -1.1276234997        2.2495586042
 N          3.0509704111       -0.9371395525        0.4517751141
 O          1.4374193755       -3.9622759227        1.0879467403
 O          0.7045068160       -2.1531398031       -0.0687511770
 C          3.0271943935       -2.3647042286        0.2057415444
 C          1.6412517635       -2.9267778499        0.5258155931
 C          3.3876249215       -2.6601086655       -1.2460346060
 H          0.8963467204        3.6720875540       -1.0107390263
 H          1.2569443869        1.8126760268       -3.4199446013
 H          2.3146281538        3.1576030913       -3.0085759155
 H          0.6378702515        3.4741019149       -3.4861010071
 H         -2.5864170066        2.8996165453        1.7376701178
 H         -0.8761898833        1.7810564701       -2.2677079448
 H         -2.8351824467        1.2559350257       -1.4023457275
 H         -2.8794017291        0.6810538694        1.0377876928
 H         -4.4689492233        1.2519219826        0.4709700746
 H         -3.4604923475        3.9482972397       -0.4610524541
 H         -4.3575603487        3.0378428039       -1.4794228827
 H          0.7430947870        2.2113259857        0.9441153865
 H          3.4777746800        1.3838678122        1.3597707331
 H          2.7227410055        1.1488073864        3.7139364726
 H          1.0382735142        1.2114208468        3.2052219140
 H          2.0661794546        2.6488462511        3.0381642242
 H          3.3472740527       -0.3057450942       -0.2919509883
 H          3.7314457000       -2.8670143423        0.8829620811
 H          3.3454507148       -3.7302534408       -1.4313268743
 H          4.3945216966       -2.3066113468       -1.4535144781
 H          2.6946727793       -2.1554315179       -1.9149714161
 C         -0.6426253922       -2.2848314804        0.1497400334
 C         -1.4815719725       -1.6719588728       -0.8002489092
 C         -1.1929167428       -2.9019136081        1.2636747731
 C         -2.8659514077       -1.7224729099       -0.6191627602
 C         -3.4091626453       -2.3595497524        0.4758302696
 C         -2.5685599572       -2.9371436537        1.4172614896
 H         -0.5476689831       -3.3409924685        2.0059917042
 H         -4.4794266043       -2.3999925981        0.6058511187
 H         -2.9865667689       -3.4199939554        2.2873524781
 H         -3.4925379580       -1.2569398208       -1.3650872790
 C         -0.9158978752       -0.9594260983       -1.9387456298
 O         -1.5374574848       -0.2318896420       -2.6822379968
 H          0.1695223395       -1.1032829829       -2.0754441924
