  56
        -94.14727807
 C         -1.8541988961       -2.0941226685       -1.1538004637
 C         -1.0597861194       -3.3882888516       -1.1848946449
 C         -1.0077252612       -0.8897997001       -1.6019202531
 O          0.2091550189       -0.8663483503       -1.5802680922
 O         -3.9798621257       -0.4170097372       -0.4353176711
 O         -2.8729466110        0.4154756279        3.9010227513
 N         -2.3332242219       -1.8310316023        0.1955459620
 C         -3.3290358130       -0.9706886628        0.4447802284
 C         -3.6446617939       -0.7379265439        1.9215794660
 C         -2.5272868992        0.0984748342        2.5800983504
 N         -4.8933237057       -0.0124380265        2.1085233863
 N         -1.7703523667        0.1379406561       -2.0223880947
 C         -1.1643528583        1.4230431563       -2.2958835262
 C         -2.2441972166        2.4489230858       -2.6166113780
 C         -0.3664764959        1.8743811736       -1.0630747198
 O         -0.7213501879        1.6255400426        0.0679759735
 N          0.7190496301        2.6258563646       -1.3575137539
 O          3.6843492045        1.9284993447       -1.2011292779
 O          2.4646347832        0.9455235506        0.4370060781
 C          1.6936565983        3.0068737114       -0.3488861843
 C          2.7734915285        1.9198854478       -0.4193162805
 C          2.2642171549        4.3861871793       -0.6357195746
 H         -2.7339774133       -2.1596673878       -1.8054707153
 H         -0.1838560931       -3.2968691020       -0.5489303984
 H         -0.7283858351       -3.5917918098       -2.1993990811
 H         -1.6728882421       -4.2147194633       -0.8349838272
 H         -3.8115963398        0.6541681551        3.8831620509
 H         -1.6976554191       -2.0972147027        0.9413049164
 H         -3.7195823724       -1.6987174937        2.4424006947
 H         -2.3610556193        1.0106134714        1.9888832330
 H         -1.5949397520       -0.4658623944        2.6223469852
 H         -5.6820989913       -0.6000219286        1.8605098089
 H         -4.9047472502        0.7758375819        1.4647585503
 H         -2.7538808902        0.1262499283       -1.7529682014
 H         -0.4773278816        1.3008885794       -3.1432468794
 H         -2.8251561928        2.1220048634       -3.4754224436
 H         -1.7970181177        3.4146268981       -2.8383295705
 H         -2.9091567306        2.5573997282       -1.7628296476
 H          1.0388451819        2.6788620307       -2.3131602401
 H          1.1843841129        2.9569182404        0.6177498499
 H          2.8493105882        4.3597946224       -1.5523251671
 H          2.9132106258        4.6964320647        0.1782754280
 H          1.4598254431        5.1089376703       -0.7410216414
 C          3.0768054057       -0.2926519296        0.4494047885
 C          2.2785966202       -1.3708132383        0.8647852096
 C          4.4055432805       -0.4965491483        0.1129496257
 C          2.8419790095       -2.6450786531        0.9212424904
 C          4.1630249314       -2.8493594679        0.5779751310
 C          4.9396012533       -1.7741488204        0.1764761156
 H          5.0179609009        0.3312781145       -0.2045019112
 H          4.5894791022       -3.8397571898        0.6228729949
 H          5.9749227033       -1.9244319294       -0.0901099503
 H          2.2132040853       -3.4624009432        1.2419187179
 C          0.8705449501       -1.1786168993        1.2141369246
 O          0.1345771393       -2.0768164116        1.5646944344
 H          0.5055495937       -0.1443800528        1.1416815820
