  56
        -94.14726681
 C         -2.2170119900       -0.1047249328       -2.0966818418
 C         -1.8003048861       -1.1375394619       -3.1293930824
 C         -1.0392833458        0.7876579579       -1.6678105275
 O          0.1309752118        0.4738402649       -1.7843225610
 O         -3.8726667315        1.0323879260       -0.1448836870
 O         -3.0150989183       -1.8091728180        3.3194843956
 N         -2.7350719403       -0.7654132853       -0.9072552874
 C         -3.4827031982       -0.1216700602       -0.0012457447
 C         -3.8691197929       -0.9351144560        1.2335553465
 C         -2.6368051873       -1.1654284807        2.1328299917
 N         -4.8731603734       -0.2596745885        2.0435266332
 N         -1.4540581186        1.9593967620       -1.1470268718
 C         -0.5044869486        2.8371474067       -0.4985928338
 C         -1.2275540538        4.0452678482        0.0838403441
 C          0.2105488137        2.0636961031        0.6197326439
 O         -0.3310140464        1.1828640344        1.2506801792
 N          1.4670436368        2.4970722646        0.8706260763
 O          4.1697024292        1.2031937173        0.2524211576
 O          2.5353331505       -0.2988571133        0.7146309349
 C          2.3681788070        1.7828908431        1.7600344434
 C          3.1768765790        0.8636123964        0.8356909697
 C          3.2631044392        2.7464309083        2.5217735554
 H         -3.0148716091        0.5388775111       -2.4867065311
 H         -0.9993551150       -1.7531290555       -2.7298671787
 H         -1.4374929339       -0.6380681219       -4.0234474403
 H         -2.6442402398       -1.7711311480       -3.3895571517
 H         -3.8415616186       -1.3896675821        3.6008998646
 H         -2.2696734959       -1.6320633717       -0.6562431998
 H         -4.2689346740       -1.9078577508        0.9265314124
 H         -2.1592970217       -0.1984986320        2.3467486208
 H         -1.9114946166       -1.8127952969        1.6384190197
 H         -5.7622206316       -0.2387309301        1.5555920737
 H         -4.5867681697        0.7091999876        2.1661675918
 H         -2.4263333298        2.0114646267       -0.8432954106
 H          0.2353891128        3.1471529703       -1.2477133110
 H         -1.7495162313        4.5819020836       -0.7045393788
 H         -0.5203074632        4.7182084437        0.5619925041
 H         -1.9531822223        3.7147229033        0.8235459644
 H          1.9063961038        3.1387926119        0.2275899611
 H          1.7428711431        1.1788785497        2.4237407369
 H          2.6596698196        3.4867245914        3.0397545253
 H          3.9377469757        3.2479165502        1.8315011073
 H          3.8577600590        2.2030929576        3.2505895014
 C          2.8357473330       -1.2579134810       -0.2331556305
 C          1.7644433787       -2.0647783738       -0.6506076178
 C          4.1071773878       -1.4671129401       -0.7431935843
 C          2.0006388950       -3.0668292215       -1.5908241734
 C          3.2653260276       -3.2692811284       -2.1051826767
 C          4.3133011253       -2.4695235463       -1.6782893643
 H          4.9293993196       -0.8491919959       -0.4219793037
 H          3.4377023643       -4.0455420451       -2.8348984230
 H          5.3064126045       -2.6230713174       -2.0728692752
 H          1.1649703290       -3.6762820757       -1.9012952182
 C          0.4125404459       -1.8541828834       -0.1311129703
 O         -0.5478629472       -2.5184353028       -0.4587766762
 H          0.3125430463       -1.0383058546        0.5985916487
