  56
        -94.14725640
 C         -1.6856097503       -0.9236426440       -2.5840573142
 C         -0.7485349515       -0.4778049174       -3.6972449942
 C         -2.3014799673        0.2856145424       -1.8695562055
 O         -2.1230191286        1.4396180144       -2.2287560406
 O         -2.5041916240       -3.3827957366       -1.5054324690
 O         -2.1412833858       -1.8472828843        1.3895784580
 N         -0.9795826828       -1.7198436511       -1.5983388522
 C         -1.5128490492       -2.8387514741       -1.0618835001
 C         -0.7615611726       -3.3835497131        0.1660619690
 C         -0.8188028112       -2.3249878914        1.2775876053
 N         -1.3299447631       -4.6244608002        0.6522202670
 N         -3.0428760992       -0.0404683557       -0.7978450429
 C         -3.5205036348        0.9632009707        0.1403558118
 C         -4.6392776245        0.3979981496        0.9977293658
 C         -2.2891658808        1.3796319524        0.9595079533
 O         -1.9876684855        0.8784676364        2.0295203635
 N         -1.5514618687        2.3237823589        0.3435048198
 O          0.4436566516        0.4891856468       -0.0224934105
 O          1.9304631661        1.7546619112        1.0926680402
 C         -0.2321650176        2.6581834190        0.8241359374
 C          0.7263124264        1.4959950413        0.5717416880
 C          0.2682805238        3.9332217312        0.1538439797
 H         -2.4908649353       -1.5552369868       -2.9783374945
 H         -0.3438736966       -1.3413672938       -4.2173550324
 H          0.0694227930        0.1039787112       -3.2782997981
 H         -1.2883278210        0.1483165931       -4.4014587741
 H         -2.1270835211       -1.0179759481        1.8987354197
 H         -0.2148200294       -1.2533303500       -1.1331791787
 H          0.2865965114       -3.5640185065       -0.1055939911
 H         -0.1379914865       -1.5014910565        1.0358619396
 H         -0.4979838631       -2.7906329876        2.2192344046
 H         -1.4701107690       -5.2584949658       -0.1292947535
 H         -2.2528196551       -4.4251861337        1.0284909188
 H         -3.0393723386       -0.9924844257       -0.4495260309
 H         -3.8692345759        1.8243932074       -0.4408736790
 H         -4.2959353930       -0.4834305877        1.5323646213
 H         -5.4833694335        0.1233419035        0.3709020062
 H         -4.9609070604        1.1416794001        1.7217242266
 H         -1.7300033143        2.4673659434       -0.6504403492
 H         -0.2890788147        2.7905867798        1.9123710040
 H          1.2426911739        4.2077305057        0.5475451838
 H         -0.4300329258        4.7431087389        0.3468207285
 H          0.3435558085        3.7856328015       -0.9216224739
 C          2.9165948320        0.7722862433        1.0393519220
 C          4.1387168662        1.0664591153        0.4234164527
 C          2.7025408914       -0.4646972925        1.6243844884
 C          5.1327328316        0.0869405261        0.4076717406
 C          4.9157903668       -1.1507726764        0.9791307837
 C          3.7006811901       -1.4245943396        1.5884613132
 H          1.7609856687       -0.6694129379        2.1104833142
 H          5.6896717433       -1.9021567763        0.9545982387
 H          3.5239179347       -2.3876911799        2.0420825259
 H          6.0699509384        0.3311411967       -0.0695892708
 C          4.3901377464        2.3721932050       -0.2047802667
 O          5.4129677280        2.6814891614       -0.7574555657
 H          3.5416620653        3.0774236070       -0.1319362491
