  56
        -94.14720272
 C         -2.4024961132       -0.8613697774       -2.0653915419
 C         -1.7919965680       -0.6566599101       -3.4414491219
 C         -2.7000971634        0.4883062035       -1.3899173420
 O         -2.3804661411        1.5603704356       -1.8739050373
 O         -3.0642374266       -2.4846027840        0.1190586708
 O         -2.3419447157       -4.4544568738        1.8629427021
 N         -1.4811719377       -1.6113135264       -1.2269718320
 C         -1.8817207743       -2.3489465161       -0.1895858288
 C         -0.7767898317       -3.0542328985        0.5901560147
 C         -1.2650441875       -4.4725094559        0.9791813453
 N          0.4742778063       -3.0562193739       -0.1523524534
 N         -3.3237535661        0.3554245717       -0.2103655951
 C         -3.4564547059        1.4522596158        0.7369516849
 C         -4.4797039464        1.0986730533        1.8008174815
 C         -2.0565785156        1.6709058116        1.3475813199
 O         -1.7225336069        1.2314435141        2.4268611262
 N         -1.2448008726        2.3814085701        0.5360266012
 O          0.4354098469        0.5120953425       -0.5603729125
 O          2.2124832424        1.3913133764        0.5217001974
 C          0.1683649346        2.5003939419        0.8009844191
 C          0.9239651316        1.3360749971        0.1672030054
 C          0.7063494656        3.8260134509        0.2658333643
 H         -3.3329033836       -1.4393894932       -2.1214714187
 H         -1.5647816598       -1.6127441995       -3.9056668143
 H         -0.8805576108       -0.0715622192       -3.3475271034
 H         -2.4853256696       -0.1074913138       -4.0716319443
 H         -3.0150774077       -3.8698775360        1.4720540284
 H         -0.5013361166       -1.3659526200       -1.2890556720
 H         -0.6263346316       -2.4800662312        1.5142048407
 H         -0.4542718516       -5.0097893400        1.4837377383
 H         -1.5198210576       -5.0198151321        0.0542975517
 H          0.3738988178       -3.6242115503       -0.9892955083
 H          1.1994727832       -3.4831625687        0.4158897176
 H         -3.5194575399       -0.5768180934        0.1399460237
 H         -3.7508006087        2.3482485523        0.1788022529
 H         -5.4269001673        0.8277810003        1.3418200393
 H         -4.6327250604        1.9472138401        2.4616129002
 H         -4.1132480202        0.2654057039        2.3957844525
 H         -1.5391639248        2.5163677634       -0.4283825303
 H          0.3107395673        2.4364257914        1.8862998451
 H          0.1997930071        4.6503953760        0.7597370054
 H          0.5237630377        3.8937894423       -0.8048073820
 H          1.7742882687        3.8982484151        0.4507981833
 C          3.1710120066        0.5180040601        0.0663060390
 C          4.4747372101        1.0314468809       -0.0748313264
 C          2.9162832511       -0.8206235213       -0.1972286301
 C          5.4943606937        0.1688504137       -0.4781187771
 C          5.2373306457       -1.1598913028       -0.7489030647
 C          3.9478328782       -1.6478290343       -0.6088293893
 H          1.9207524395       -1.2214580476       -0.0866325181
 H          6.0354030174       -1.8135191924       -1.0655302260
 H          3.7370439802       -2.6856493918       -0.8173143214
 H          6.4956374447        0.5608258459       -0.5826517205
 C          4.7962803492        2.4435972287        0.1660548232
 O          4.0266662768        3.3267478701        0.4414935155
 H          5.8793178385        2.6536441402        0.0525986738
