  56
        -94.14720217
 C         -2.3849126268       -0.8572935278       -2.0693662930
 C         -1.7603065746       -0.6524894462       -3.4390457789
 C         -2.6866292603        0.4924286056       -1.3957252320
 O         -2.3608366937        1.5643676315       -1.8757476173
 O         -3.0695926400       -2.4802560130        0.1087550637
 O         -2.3654364516       -4.4452062132        1.8654885295
 N         -1.4728387274       -1.6090336218       -1.2224075725
 C         -1.8840245467       -2.3455081568       -0.1883893830
 C         -0.7871932756       -3.0501536558        0.6033336583
 C         -1.2804765004       -4.4668210509        0.9917135167
 N          0.4708105240       -3.0553354402       -0.1274144628
 N         -3.3212554819        0.3596786371       -0.2219306384
 C         -3.4580637866        1.4554515053        0.7260465812
 C         -4.4917525822        1.1039769181        1.7804643627
 C         -2.0624729165        1.6673829278        1.3487156353
 O         -1.7386255257        1.2234123239        2.4292615601
 N         -1.2415684950        2.3770224462        0.5456364181
 O          0.4388426960        0.5129293574       -0.5545035885
 O          2.2164116493        1.3860780583        0.5306116465
 C          0.1700657777        2.4906681777        0.8212409313
 C          0.9271797064        1.3326048448        0.1780708744
 C          0.7128344452        3.8225562256        0.3068961797
 H         -3.3156221918       -1.4337858215       -2.1349860148
 H         -2.4462584628       -0.1015220267       -4.0756888560
 H         -1.5300205947       -1.6085449145       -3.9018096998
 H         -0.8488726312       -0.0690556421       -3.3352209632
 H         -3.0344827614       -3.8613904689        1.4665444181
 H         -0.4922022987       -1.3647621918       -1.2755651818
 H         -0.6447914256       -2.4735674270        1.5271827252
 H         -0.4749346019       -5.0034729974        1.5052276264
 H         -1.5272840421       -5.0164678114        0.0660647254
 H          0.3774682251       -3.6250059576       -0.9640366707
 H          1.1900404286       -3.4821177461        0.4485128157
 H         -3.5219753667       -0.5725082919        0.1256816939
 H         -3.7442205989        2.3534622411        0.1669167522
 H         -5.4359754648        0.8376076266        1.3127771951
 H         -4.6472189897        1.9519433156        2.4414232535
 H         -4.1337305342        0.2682002629        2.3770420050
 H         -1.5281763638        2.5164514968       -0.4204301335
 H          0.3047915911        2.4125903355        1.9066779935
 H          0.5331501277        3.9062555751       -0.7630981385
 H          1.7805114833        3.8896076748        0.4950628633
 H          0.2070149264        4.6409710219        0.8113595160
 C          3.1718379812        0.5142338361        0.0652506509
 C          4.4728958612        1.0290260444       -0.0933410407
 C          2.9153449339       -0.8251154713       -0.1927859161
 C          5.4880556875        0.1670764942       -0.5092384512
 C          5.2291871482       -1.1624013539       -0.7745355990
 C          3.9423499361       -1.6518660497       -0.6164068194
 H          1.9217766701       -1.2269423176       -0.0686225107
 H          6.0238112970       -1.8154548903       -1.1008673260
 H          3.7301054551       -2.6903174061       -0.8201762883
 H          6.4873813971        0.5601011802       -0.6275634718
 C          4.7962648841        2.4415530384        0.1427815661
 O          4.0307116185        3.3224452167        0.4361097212
 H          5.8763403300        2.6540336170        0.0077134162
