  56
        -94.14719574
 C         -2.3800809464       -0.8226257652       -2.0620690188
 C         -1.7375118142       -0.6260592873       -3.4246131699
 C         -2.6678732494        0.5308458712       -1.3898715180
 O         -2.3266359054        1.5986790905       -1.8681950198
 O         -3.1151592693       -2.4429948636        0.1005542634
 O         -2.4631820199       -4.4332092835        1.8475148695
 N         -1.4890920299       -1.5894253417       -1.2061611975
 C         -1.9238610376       -2.3231634982       -0.1798862495
 C         -0.8480788500       -3.0442064761        0.6256923310
 C         -1.3623016546       -4.4588872936        0.9940226002
 N          0.4229742871       -3.0563441399       -0.0818560160
 N         -3.3088041861        0.4056859367       -0.2185877867
 C         -3.4321132561        1.5005759272        0.7322708278
 C         -4.4693709737        1.1580961498        1.7861288622
 C         -2.0337292441        1.6935362724        1.3550629707
 O         -1.7146419812        1.2410370746        2.4335271490
 N         -1.2050273122        2.3972325895        0.5547853750
 O          0.4486242033        0.5107848093       -0.5460978970
 O          2.2411831374        1.3641618963        0.5288453597
 C          0.2082308879        2.4923196391        0.8294671999
 C          0.9494747289        1.3258192802        0.1831653480
 C          0.7668532241        3.8188662562        0.3185403576
 H         -3.3188911621       -1.3844593016       -2.1384682787
 H         -2.4059608384       -0.0598335583       -4.0664468755
 H         -1.5211684942       -1.5850664921       -3.8879935345
 H         -0.8159505748       -0.0609578801       -3.3094531224
 H         -3.1179559005       -3.8377065038        1.4420268043
 H         -0.5048077714       -1.3573310182       -1.2456656019
 H         -0.7170853773       -2.4760602380        1.5563902506
 H         -0.5717740612       -5.0074327265        1.5182241123
 H         -1.5970763714       -4.9989556518        0.0596147694
 H          0.3405357858       -3.6216156933       -0.9226021276
 H          1.1280382016       -3.4913278645        0.5053263759
 H         -3.5273553666       -0.5237947691        0.1251165194
 H         -3.7077586647        2.4037916248        0.1762496026
 H         -4.6128790752        2.0049471851        2.4511958284
 H         -4.1219051719        0.3148687095        2.3784706933
 H         -5.4175118732        0.9064008272        1.3182465071
 H         -1.4900201163        2.5424841678       -0.4109466492
 H          0.3428152662        2.4092679508        1.9146072397
 H          0.5824050662        3.9100978910       -0.7500064845
 H          1.8364648648        3.8702188451        0.5004321152
 H          0.2753786128        4.6419018019        0.8296171085
 C          3.1797724044        0.4755311160        0.0603846324
 C          4.4835479658        0.9722655946       -0.1290220196
 C          2.9029075539       -0.8644465354       -0.1719545550
 C          5.4810073084        0.0917317310       -0.5489503316
 C          5.2020271531       -1.2386562962       -0.7879096397
 C          3.9125226446       -1.7102125727       -0.5996757838
 H          1.9066829880       -1.2518090698       -0.0247749005
 H          5.9830982294       -1.9062734029       -1.1174618176
 H          3.6846682992       -2.7491543322       -0.7829739930
 H          6.4825940422        0.4708374809       -0.6911460915
 C          4.8273681872        2.3843217755        0.0793476727
 O          4.0784519845        3.2771043256        0.3795931166
 H          5.9059400908        2.5833517328       -0.0850144141
