  56
        -94.15242608
 C         -1.4071718882       -2.6973144135       -1.3574845702
 C         -1.7647000903       -2.6179547213       -2.8364326492
 C         -2.4460583114       -1.9690721682       -0.4971214415
 O         -3.4177159132       -1.3922098848       -0.9529684661
 O          1.0651832443       -3.8935836316       -0.5529777427
 O          0.5373148886       -1.6112736438        1.9554772813
 N         -0.1405420091       -2.0492868344       -1.0730035472
 C          0.9419433076       -2.6850879033       -0.5883610564
 C          2.0106538417       -1.7398194903       -0.0168954401
 C          1.8544436154       -1.8194058679        1.5170091633
 N          3.3686110041       -2.1238528636       -0.3596223986
 N         -2.1526100296       -1.9784417502        0.8198675470
 C         -2.7988586779       -1.0454932848        1.7319145071
 C         -2.5648726898       -1.4635530402        3.1721189314
 C         -2.1532107861        0.3014036821        1.3986092061
 O         -1.0898831049        0.6690283211        1.8826185408
 N         -2.7746696592        1.0107572570        0.4448326823
 O         -0.1967659423        0.8189433237       -0.8002094129
 O          0.1853763513        2.6922709823        0.3679435248
 C         -2.0796548845        2.1584226901       -0.1216945961
 C         -0.6016302287        1.7968254278       -0.2177670835
 C         -2.6106661409        2.4745885060       -1.5120766922
 H         -1.3120085643       -3.7420319212       -1.0392269566
 H         -2.7464665076       -3.0527074460       -3.0002547212
 H         -1.0282626713       -3.1554461459       -3.4270303733
 H         -1.7903512004       -1.5785706073       -3.1546608224
 H          0.2851326607       -0.6745259133        1.8760371407
 H         -0.1457340833       -1.0377621695       -1.1021084613
 H          1.8359357193       -0.7134026423       -0.3559907439
 H          2.5532525724       -1.1158157341        1.9837187181
 H          2.1136165930       -2.8343080679        1.8324000840
 H          3.5100403436       -2.0226515313       -1.3600083078
 H          3.4833942645       -3.1116679574       -0.1448757301
 H         -1.2419234853       -2.3088827740        1.1271388038
 H         -3.8657179779       -1.0186283444        1.4877179265
 H         -2.9855443474       -2.4501954565        3.3450571678
 H         -3.0353293549       -0.7526123556        3.8458435442
 H         -1.4976863499       -1.4906660171        3.3765031222
 H         -3.4842005581        0.5542495277       -0.1188601928
 H         -2.1792072079        3.0173595337        0.5518989337
 H         -3.6474355891        2.7952058893       -1.4533460305
 H         -2.5433292579        1.5879848523       -2.1389127922
 H         -2.0138319797        3.2630948808       -1.9628559393
 C          1.5443922537        2.4086739043        0.3432204718
 C          2.2707833777        2.4728928773       -0.8532525542
 C          2.1501371481        2.0119244453        1.5236669069
 C          3.6218542437        2.1205330881       -0.8249823346
 C          4.2290959698        1.7297094639        0.3512749342
 C          3.4947036700        1.6820417675        1.5271344504
 H          1.5483013827        1.9521025585        2.4173167267
 H          5.2712604348        1.4519336249        0.3544306863
 H          3.9669105397        1.3725423468        2.4468712644
 H          4.1885978689        2.1579989498       -1.7437773306
 C          1.6517344731        2.8886169859       -2.1187082146
 O          0.5466859611        3.3471665705       -2.2595930676
 H          2.3218470467        2.7472850213       -2.9898521556
