  56
        -94.14719522
 C         -2.3819306500       -0.8123858650       -2.0569824895
 C         -1.7377495400       -0.6185244641       -3.4192267758
 C         -2.6628040657        0.5427165056       -1.3850825061
 O         -2.3193679128        1.6086985361       -1.8660906424
 O         -3.1244029807       -2.4264920695        0.1092287220
 O         -2.4852498568       -4.4390428414        1.8347342181
 N         -1.4955608778       -1.5857770583       -1.2024175993
 C         -1.9331617541       -2.3172869131       -0.1759233783
 C         -0.8612979850       -3.0516369849        0.6228992999
 C         -1.3856171189       -4.4656691426        0.9797280010
 N          0.4088415260       -3.0671492614       -0.0861972315
 N         -3.3021437511        0.4217623681       -0.2126133445
 C         -3.4228146996        1.5201302749        0.7346207058
 C         -4.4611873486        1.1844109705        1.7895410231
 C         -2.0236796432        1.7110969893        1.3562738051
 O         -1.7050588907        1.2605895582        2.4356773109
 N         -1.1937668048        2.4102774728        0.5532427558
 O          0.4474238633        0.5084497997       -0.5399366947
 O          2.2458730385        1.3561665780        0.5297975328
 C          0.2205364803        2.4994401897        0.8243161860
 C          0.9537469534        1.3240684475        0.1848487068
 C          0.7853286430        3.8184169397        0.3007045100
 H         -3.3241822440       -1.3684264906       -2.1341537242
 H         -2.4033794758       -0.0495899461       -4.0615735224
 H         -1.5248981741       -1.5784087953       -3.8824265635
 H         -0.8140008835       -0.0571162271       -3.3033737132
 H         -3.1350103388       -3.8331796305        1.4364608752
 H         -0.5092860127       -1.3630950646       -1.2451262072
 H         -0.7254274248       -2.4922991385        1.5581382941
 H         -0.5985781808       -5.0246612281        1.4981017004
 H         -1.6255697734       -4.9959290015        0.0409621588
 H          0.3229503258       -3.6298162321       -0.9283571057
 H          1.1129491461       -3.5065873217        0.4987647516
 H         -3.5227209747       -0.5063145431        0.1337134063
 H         -3.6958042641        2.4221094357        0.1752726021
 H         -4.1138151415        0.3457895286        2.3884286453
 H         -5.4084806078        0.9285492461        1.3221855005
 H         -4.6064109650        2.0359842185        2.4482004036
 H         -1.4796612536        2.5533738961       -0.4125814094
 H          0.3575661565        2.4244551473        1.9096747844
 H          0.6002980712        3.9006418877       -0.7684978104
 H          1.8553326557        3.8660577063        0.4812729974
 H          0.2984621244        4.6486225723        0.8045412682
 C          3.1796457203        0.4620546951        0.0622584552
 C          4.4857502692        0.9522762764       -0.1283519893
 C          2.8961743907       -0.8767889959       -0.1687335621
 C          5.4785988785        0.0667117886       -0.5485653514
 C          5.1928851336       -1.2623663719       -0.7868310454
 C          3.9013117905       -1.7276044864       -0.5970370887
 H          1.8983213372       -1.2593284953       -0.0201507305
 H          5.9704127338       -1.9339016523       -1.1168129438
 H          3.6683572895       -2.7655866695       -0.7793433688
 H          6.4819222662        0.4408726408       -0.6917013419
 C          4.8367506479        2.3627413173        0.0789165732
 O          4.0920321946        3.2601647490        0.3757012519
 H          5.9168072130        2.5555924125       -0.0829716507
