  56
        -94.14719136
 C         -2.2044860001       -1.2369049940       -1.3721589419
 C         -1.4751525258       -2.5662875578       -1.4562405415
 C         -1.4145897166       -0.0845790388       -2.0117394011
 O         -0.2265850140       -0.1477851577       -2.2890630249
 O         -4.1524508499        0.5033752549       -0.3356760248
 O         -1.7703840603       -1.3988451154        2.6594069473
 N         -2.4012049646       -0.8709484445        0.0208180350
 C         -3.3431279362       -0.0144922623        0.4251322631
 C         -3.3245351288        0.3222095795        1.9143654824
 C         -3.0751969380       -0.9045920889        2.8084105887
 N         -2.2167846519        1.2484037550        2.1444749859
 N         -2.1665752244        1.0151458970       -2.1836492251
 C         -1.5802791993        2.3346138010       -2.3773453726
 C         -2.6624696319        3.3326624073       -2.7453249935
 C         -0.9420483836        2.6542684125       -1.0161270129
 O         -1.5569180764        3.1681778705       -0.1041847378
 N          0.3301023797        2.2187453117       -0.9067931909
 O          0.4319384886       -0.1891103592        0.9497741006
 O          2.4752893179        0.2565833627        0.1270803528
 C          0.9983314887        2.0891857434        0.3780102199
 C          1.2497240824        0.5911101451        0.5434755341
 C          2.2636346223        2.9362641767        0.4333703924
 H         -3.1898676679       -1.2936421055       -1.8515892741
 H         -2.0986755958       -3.3618403963       -1.0573549666
 H         -0.5550241818       -2.5176806787       -0.8794957429
 H         -1.2296345294       -2.7889086024       -2.4911688077
 H         -1.1806063210       -0.6273841863        2.6109711882
 H         -1.7298284715       -1.2150953834        0.7017978138
 H         -4.3130293931        0.7496355735        2.1517542976
 H         -3.7615271997       -1.7159958160        2.5542668019
 H         -3.2517325276       -0.6144217662        3.8555899641
 H         -2.3266340331        1.6997929176        3.0471514199
 H         -2.1968563956        1.9806212625        1.4392343760
 H         -3.1043194643        1.0065278888       -1.7759417150
 H         -0.8128031543        2.2639231111       -3.1551784077
 H         -3.3580259879        3.4317569317       -1.9152424074
 H         -3.2006142164        2.9971526525       -3.6276142309
 H         -2.2196990657        4.3047191425       -2.9446554202
 H          0.7129290283        1.6756842542       -1.6713280557
 H          0.2771400865        2.4063416509        1.1399713583
 H          2.7460500095        2.8264531613        1.4007112052
 H          2.0024746566        3.9812978821        0.2892832886
 H          2.9604825306        2.6358141396       -0.3445077152
 C          2.8036047062       -1.0928170118        0.0122340884
 C          3.8017800305       -1.6332979406        0.8300671229
 C          2.1722473416       -1.8667687854       -0.9465023380
 C          4.1464866074       -2.9755786907        0.6616995775
 C          3.5140338312       -3.7532837011       -0.2870059769
 C          2.5291794624       -3.1977242371       -1.0903738740
 H          1.4144688501       -1.4176206195       -1.5725214668
 H          3.7864706481       -4.7908917098       -0.4047856748
 H          2.0343067152       -3.8004280887       -1.8367398229
 H          4.9185364203       -3.3801331683        1.2988965478
 C          4.4815385483       -0.8234797631        1.8497424088
 O          5.3429807646       -1.2263211040        2.5878957067
 H          4.1356759631        0.2265130544        1.8936921523
