  56
        -94.14717360
 C         -3.2680965012        0.3300899451        2.1615670229
 C         -4.6762483164        0.8521350488        1.9319029199
 C         -2.2376026926        1.4734597704        2.1052093726
 O         -2.4784405114        2.5579798176        1.5961970265
 O         -1.1881810624       -1.5589747489        2.2449627622
 O         -3.7590707316       -1.9789379141       -1.1881596778
 N         -2.9379784994       -0.6583783036        1.1464205044
 C         -1.9299165025       -1.5291303862        1.2701843841
 C         -1.7476800312       -2.5422047541        0.1281695441
 C         -2.3503467830       -2.0922077195       -1.2077607543
 N         -0.3425634881       -2.8497755153       -0.0804549448
 N         -1.0706889575        1.1528597785        2.6778206251
 C          0.0828555440        2.0390116481        2.6665131350
 C          1.0911229823        1.5827285451        3.7064748932
 C          0.6754143690        1.9908367226        1.2534674443
 O          1.6382405800        1.3152152082        0.9414657663
 N          0.0016138409        2.7350081960        0.3557076333
 O         -0.2097588133        0.2074029320       -0.9459243060
 O          1.7310228787        0.8387625570       -1.9000666763
 C          0.3324089789        2.5532533372       -1.0460513957
 C          0.5814304756        1.0592074440       -1.2618628017
 C         -0.8173159149        3.0206433773       -1.9277142636
 H         -3.1832050867       -0.1560233002        3.1423347150
 H         -5.3870772585        0.0301660351        1.9055330516
 H         -4.7171184032        1.3977437923        0.9922215034
 H         -4.9508470245        1.5342903091        2.7316003563
 H         -4.1390690742       -2.8525932210       -1.0427993674
 H         -3.4966799424       -0.6656737794        0.3030880814
 H         -2.2430022735       -3.4713920742        0.4552850606
 H         -2.0256630985       -2.8027160093       -1.9771529760
 H         -1.9661333762       -1.1032447640       -1.4621915284
 H          0.0807777978       -3.0468707143        0.8230555995
 H          0.1155085712       -2.0143611773       -0.4368937682
 H         -0.8924921926        0.1628614060        2.8601184128
 H         -0.2754638949        3.0551278947        2.8694296479
 H          0.6249634554        1.5268983492        4.6865521090
 H          1.9239397075        2.2792587778        3.7451141454
 H          1.4761264822        0.6035312639        3.4320723693
 H         -0.9276074547        3.0712175356        0.6031572394
 H          1.2577814493        3.0941971534       -1.2794008350
 H         -0.5616804553        2.9003395451       -2.9774803602
 H         -1.0262450871        4.0697230199       -1.7346961793
 H         -1.7087199413        2.4362741927       -1.7095979706
 C          2.1198671242       -0.4754225769       -2.1393056628
 C          3.3582365877       -0.9067158708       -1.6515704335
 C          1.3160957888       -1.3301755451       -2.8762536621
 C          3.7716723395       -2.2079174291       -1.9352924017
 C          2.9684412935       -3.0638942345       -2.6622269440
 C          1.7398682395       -2.6246249255       -3.1286772240
 H          0.3635503933       -0.9832813163       -3.2460528377
 H          3.2944780374       -4.0723719886       -2.8647394328
 H          1.1048458789       -3.2887701135       -3.6941101947
 H          4.7323707183       -2.5230350194       -1.5561835027
 C          4.2089586338       -0.0291880497       -0.8270057173
 O          5.3409394553       -0.2925744018       -0.5095641201
 H          3.7162640355        0.9004831152       -0.5005741028
