  56
        -94.14715918
 C          1.3987178382        2.5394406040       -1.5852187784
 C          1.7935945280        2.4218969621       -3.0482549484
 C          2.1856748134        1.5355572259       -0.7187099266
 O          2.9966025232        0.7529206912       -1.1898536482
 O         -0.2465326004        3.4393975054        0.5095469300
 O         -3.9551272738        1.3156964712        0.7797586210
 N         -0.0358313408        2.3420471563       -1.4476189533
 C         -0.7485217822        2.8069242876       -0.4136860336
 C         -2.2458152556        2.5183071720       -0.4468911964
 C         -2.6020551837        1.6698176426        0.7881192596
 N         -3.0483311897        3.7334827955       -0.3767126523
 N          1.9053304318        1.6320293332        0.5849520800
 C          2.5845731498        0.8752944710        1.6248362865
 C          2.2487441241        1.4739240554        2.9803638190
 C          2.1741232699       -0.6113882819        1.5774486907
 O          1.3762936673       -1.1142355034        2.3438836742
 N          2.8172491705       -1.3079249936        0.6262862726
 O          0.6982176026       -3.9942955186        1.3334215810
 O          0.3250262707       -2.1860110516        0.0145365458
 C          2.5645306582       -2.7256198019        0.4701868223
 C          1.0887909993       -3.0449187751        0.7189945367
 C          2.9624786452       -3.1828795146       -0.9292555420
 H          1.6274914865        3.5420660446       -1.1983934621
 H          2.8676824829        2.5471884551       -3.1492065506
 H          1.2864950828        3.1789384746       -3.6404853212
 H          1.5292776088        1.4367671840       -3.4250064013
 H         -4.4466053357        2.1217303851        0.5674341330
 H         -0.4816408432        1.7662664391       -2.1521403489
 H         -2.5195576291        1.9724810567       -1.3543676517
 H         -2.3523745854        2.2504507611        1.6884532108
 H         -2.0261648692        0.7417414173        0.8004695152
 H         -2.9435748089        4.2816729753       -1.2236620397
 H         -2.7168853904        4.3007614795        0.3997386820
 H          1.2237022721        2.3253441066        0.8864768515
 H          3.6651654855        0.9233502581        1.4310416121
 H          2.8119459093        0.9659139828        3.7581346231
 H          1.1893420061        1.3399498263        3.1851949315
 H          2.4901597940        2.5336221715        2.9986043959
 H          3.2572764293       -0.7932801547       -0.1354203394
 H          3.1324514317       -3.2831853285        1.2277739870
 H          4.0253229261       -3.0134825465       -1.0829286287
 H          2.4069507106       -2.6241313156       -1.6786937249
 H          2.7545782781       -4.2429394589       -1.0495215884
 C         -1.0469174542       -2.1351654178        0.0821977310
 C         -1.6782813015       -1.4070186452       -0.9460111694
 C         -1.8037299471       -2.6701312015        1.1127602371
 C         -3.0671598823       -1.2537028256       -0.9222611185
 C         -3.8169407724       -1.8086452428        0.0918971889
 C         -3.1798647618       -2.5055663198        1.1079839057
 H         -1.3191137047       -3.1996387665        1.9157754753
 H         -4.8870400958       -1.6812015635        0.1064591785
 H         -3.7578351736       -2.9231842863        1.9181631327
 H         -3.5305214641       -0.6891097834       -1.7166414375
 C         -0.8873337489       -0.7715503641       -1.9873448880
 O         -1.2880688533        0.0968924813       -2.7354069405
 H          0.1623063445       -1.1086755203       -2.0409675155
