  56
        -94.15242496
 C         -1.4229126805       -2.6919510490       -1.3560915483
 C         -1.7820203070       -2.6081611027       -2.8344113834
 C         -2.4569641758       -1.9594873813       -0.4935073790
 O         -3.4268901826       -1.3782832864       -0.9476186676
 O          1.0400372904       -3.9014070800       -0.5441700130
 O          0.5318383241       -1.6145728756        1.9586753394
 N         -0.1524341351       -2.0510290852       -1.0727290967
 C          0.9252071907       -2.6922195701       -0.5842389608
 C          2.0003826137       -1.7521232919       -0.0163620048
 C          1.8473288474       -1.8283807414        1.5179883520
 N          3.3553007965       -2.1442877478       -0.3620211274
 N         -2.1612187504       -1.9698836719        0.8229322398
 C         -2.8010329651       -1.0329777472        1.7354998106
 C         -2.5666837704       -1.4510213870        3.1756249070
 C         -2.1490509461        0.3102577563        1.3995263429
 O         -1.0832820569        0.6733307505        1.8816200245
 N         -2.7680411057        1.0210595692        0.4452881406
 O         -0.1897839039        0.8177599480       -0.8009958925
 O          0.1979935177        2.6911243387        0.3654177784
 C         -2.0684380664        2.1644180670       -0.1242323940
 C         -0.5916504720        1.7974256100       -0.2194839823
 C         -2.5982118123        2.4787500569       -1.5155343619
 H         -1.3327585996       -3.7376078690       -1.0395214887
 H         -2.7657971226       -3.0384549436       -2.9979639080
 H         -1.0485541587       -3.1473657565       -3.4271307443
 H         -1.8037782160       -1.5679968996       -3.1504053183
 H          0.2830648352       -0.6770043167        1.8778541333
 H         -0.1515200131       -1.0395429881       -1.1039564353
 H          1.8306153749       -0.7252524364       -0.3566240329
 H          2.5496626663       -1.1264767665        1.9819754315
 H          2.1033808390       -2.8436556800        1.8347057213
 H          3.4944574824       -2.0459856217       -1.3630244870
 H          3.4654712466       -3.1321986858       -0.1453508665
 H         -1.2521143621       -2.3055657627        1.1291328491
 H         -3.8681875932       -1.0008435230        1.4932126880
 H         -1.4993752591       -1.4816525195        3.3788288463
 H         -2.9904444740       -2.4361712957        3.3495364176
 H         -3.0340437799       -0.7381977965        3.8495152707
 H         -3.4809309168        0.5672679947       -0.1164002589
 H         -2.1647386098        3.0256315365        0.5469395334
 H         -3.6336040761        2.8039244845       -1.4576883462
 H         -2.5347039032        1.5900395448       -2.1397850242
 H         -1.9980573840        3.2633633390       -1.9686790116
 C          1.5564315920        2.4051605066        0.3400049085
 C          2.2820364077        2.4662054008       -0.8571382771
 C          2.1627413687        2.0104046114        1.5208362477
 C          3.6328072891        2.1126388540       -0.8291180685
 C          4.2405782742        1.7238078616        0.3475257986
 C          3.5069912481        1.6792737512        1.5240222934
 H          1.5615971382        1.9533092271        2.4151167844
 H          5.2825384931        1.4452127359        0.3505472137
 H          3.9795851817        1.3713281567        2.4440808379
 H          4.1988925776        2.1476925769       -1.7484211092
 C          1.6629007184        2.8808106023       -2.1229304651
 O          0.5583002191        3.3402486798       -2.2640271769
 H          2.3326763632        2.7377940313       -2.9941146725
