  56
        -94.14713242
 C         -1.1300292128       -0.9606185876       -2.1695396499
 C         -0.1717849662       -2.1155652449       -2.4410799505
 C         -0.3439840570        0.3142091592       -1.8277596501
 O          0.8475350894        0.4178018215       -2.0571939437
 O         -3.9280529401       -1.2343086620       -2.2659369901
 O         -3.9405689998        1.1417427039       -0.1439756957
 N         -2.0145875063       -1.2598382793       -1.0597246745
 C         -3.3514500857       -1.2762671273       -1.1954566721
 C         -4.1356443632       -1.2944612878        0.1280606809
 C         -3.9301431248        0.0849144101        0.7946745890
 N         -5.5553336340       -1.5101865219       -0.1058121920
 N         -1.0854561439        1.2868364662       -1.2582846240
 C         -0.4729059302        2.2146453094       -0.3338765223
 C         -1.3948948374        3.4002138710       -0.0810869756
 C         -0.1972290770        1.4410826011        0.9628667997
 O         -0.6778456665        0.3376774680        1.1695140613
 N          0.5843724999        2.0697103327        1.8611221034
 O          1.5607952331       -1.0566034449        3.1594496722
 O          2.2620499413        0.1823024189        1.3904741899
 C          1.0482624184        1.3143301897        3.0124910559
 C          1.6329190648       -0.0289343734        2.5463892757
 C          2.1085272715        2.1009280130        3.7710119076
 H         -1.7679223360       -0.7815254548       -3.0438048082
 H          0.4114569335       -2.3314938218       -1.5482315058
 H          0.5137485006       -1.8386501025       -3.2362335830
 H         -0.7266021859       -3.0032467269       -2.7317101593
 H         -4.7738659176        1.1021835220       -0.6282222401
 H         -1.6077458280       -1.1782686982       -0.1358980340
 H         -3.7427517870       -2.0634762974        0.7976025279
 H         -2.9542942371        0.1318690058        1.2817455720
 H         -4.7174134368        0.2284565443        1.5436722664
 H         -5.7700095546       -2.5004942200       -0.1112289945
 H         -5.7773336948       -1.1682990219       -1.0406226997
 H         -2.0641983060        1.1006623609       -1.0583659705
 H          0.4874086519        2.5365472498       -0.7506334729
 H         -1.5408597193        3.9557505285       -1.0036035510
 H         -0.9679205355        4.0618493656        0.6670589620
 H         -2.3619498821        3.0434323595        0.2664876283
 H          1.2042381714        2.7878739526        1.5141174506
 H          0.1919460306        1.0878510894        3.6582239777
 H          1.6922148315        3.0404988856        4.1260590287
 H          2.9531128738        2.3090263071        3.1172897846
 H          2.4563146961        1.5258233242        4.6250144163
 C          2.7415812437       -0.7604261874        0.5178348422
 C          3.1286852141       -0.2569763733       -0.7383931949
 C          2.8359482358       -2.1162869171        0.7943706456
 C          3.6083040976       -1.1500771477       -1.6931654454
 C          3.7054032103       -2.5000070711       -1.4180890753
 C          3.3170153009       -2.9785667259       -0.1768699061
 H          2.5263600957       -2.4913910819        1.7561803508
 H          4.0756350152       -3.1814413284       -2.1687270418
 H          3.3842273691       -4.0336301846        0.0421677008
 H          3.8933014794       -0.7690089947       -2.6620221172
 C          2.9986247362        1.1645391145       -1.0885196186
 O          2.6724797151        2.0676757986       -0.3540029605
 H          3.2820511614        1.3684758945       -2.1358382148
