  56
        -94.14712462
 C         -0.4760692809       -1.4237562815       -2.4514956209
 C          0.6482216342       -0.8846474672       -3.3163935339
 C         -1.3542965031       -0.3045158241       -1.8729351184
 O         -0.9914496935        0.8512941254       -1.7576905541
 O         -1.7714371975       -3.3786616813       -0.9615525808
 O          0.9361669214       -1.2372592278        1.1115034352
 N          0.0676966436       -2.1160684060       -1.2890441632
 C         -0.6781689548       -2.9782415446       -0.5766739084
 C         -0.1383991325       -3.4386048782        0.7859237594
 C          1.0484004142       -2.6259184187        1.3246718218
 N         -1.2168520006       -3.4148318229        1.7665891146
 N         -2.5461128437       -0.7498178649       -1.4239994628
 C         -3.3096595992        0.0744899672       -0.5024790746
 C         -4.4750043433       -0.7233192658        0.0637964692
 C         -2.3542291624        0.4997616817        0.6230147889
 O         -1.7649078224       -0.3277624435        1.2997121015
 N         -2.2435488306        1.8229959064        0.8130318984
 O          0.1504661312        3.7400325861        0.2789037099
 O          0.7795334685        1.6496601249        0.8781915985
 C         -1.2687021725        2.4065084910        1.7191098574
 C         -0.0243362879        2.7101030460        0.8676445732
 C         -1.8211449541        3.6694280795        2.3598393071
 H         -1.0992148956       -2.1373798308       -3.0006605501
 H          1.2065512854       -0.1308079473       -2.7659392431
 H          0.2356983019       -0.4235406197       -4.2095116976
 H          1.3186569466       -1.6890171784       -3.6070995380
 H          0.0726338819       -0.9295997484        1.4364111802
 H          0.8253477451       -1.6379819688       -0.8146374425
 H          0.1783817209       -4.4846495555        0.6807349758
 H          1.9777553446       -2.9276254409        0.8344556782
 H          1.1351200407       -2.8439453841        2.3958558123
 H         -1.9972360402       -3.9608292901        1.4141558173
 H         -1.5482577450       -2.4594796254        1.8830804721
 H         -2.6879940488       -1.7570195408       -1.3765720657
 H         -3.6669941997        0.9604865316       -1.0411479407
 H         -5.0690010955       -0.1016568117        0.7289211427
 H         -4.0975917233       -1.5751203888        0.6252077936
 H         -5.1072299943       -1.0836074784       -0.7435593398
 H         -2.6163192130        2.4500941825        0.1153141595
 H         -1.0223659384        1.6391531354        2.4589009133
 H         -1.1280167379        4.0372207922        3.1109430959
 H         -2.7782464915        3.4645631457        2.8319095790
 H         -1.9469156107        4.4407068826        1.6034716735
 C          1.8695691968        1.5129791870        0.0357007695
 C          2.9363293119        0.7336327914        0.5045962606
 C          1.8919735575        2.0347594473       -1.2479457249
 C          4.0140158956        0.4888473679       -0.3437841924
 C          4.0452823402        1.0186756501       -1.6188113433
 C          2.9843307663        1.7907094870       -2.0656935415
 H          1.0537724711        2.6049923894       -1.6122931237
 H          4.8884818368        0.8294546653       -2.2655543027
 H          2.9962265488        2.2014983756       -3.0640588932
 H          4.8217340604       -0.1210854221        0.0323723370
 C          2.9444289820        0.1752121664        1.8679132199
 O          3.7429087513       -0.6328211895        2.2679757535
 H          2.1704912368        0.5963012515        2.5319407500
