  56
        -94.14712442
 C          0.7002596968       -2.5455305161       -1.8988607494
 C          0.7308841626       -1.5940332449       -3.0868214853
 C         -0.7430267441       -2.6624130650       -1.3657846788
 O         -1.7045357638       -2.5643910371       -2.1064163971
 O          2.0788038982        0.0395061610       -1.1067645064
 O          3.7901891443        1.0559737863        0.8016203657
 N          1.6277344020       -2.1909669659       -0.8414654777
 C          2.0354678025       -0.9733214196       -0.4341549533
 C          2.5315724130       -1.0280750928        1.0215943016
 C          2.8049652171        0.3942013451        1.5446042002
 N          1.5214326251       -1.7546900142        1.7881570744
 N         -0.8586407065       -2.9648813523       -0.0591318539
 C         -2.1567417544       -3.0825310948        0.5888025573
 C         -2.0682785795       -4.0528132699        1.7549751549
 C         -2.5592051937       -1.6731931037        1.0547584241
 O         -2.5602901832       -1.3292570605        2.2176479680
 N         -2.8889272292       -0.8614491393        0.0256726947
 O         -0.4942240571        0.2092480316        0.5938126974
 O         -1.2746525805        2.3167286164        0.4912904032
 C         -2.8525841792        0.5691113814        0.2150573052
 C         -1.3948770492        0.9869304903        0.4154332047
 C         -3.5164924326        1.2970567077       -0.9431367379
 H          0.9818166854       -3.5530163495       -2.2405518001
 H          0.3609495062       -0.6170277631       -2.7949875305
 H          0.0858154115       -1.9878097982       -3.8672067449
 H          1.7444588026       -1.4947512734       -3.4641272798
 H          3.4708972506        1.0598819939       -0.1152834308
 H          1.7361452600       -2.9044462730       -0.1323610703
 H          3.4678858504       -1.6018879537        1.0435172235
 H          3.1683578304        0.3481140154        2.5762239795
 H          1.8582591784        0.9538225228        1.5295271607
 H          0.6751528747       -1.1868847978        1.8035209534
 H          1.8245341434       -1.8581577933        2.7518948916
 H         -0.0839945513       -2.8047977135        0.5726855410
 H         -2.8664552186       -3.4312804722       -0.1689446069
 H         -1.6941150633       -5.0168805240        1.4205671834
 H         -3.0520838641       -4.1844369650        2.1956811823
 H         -1.4063837750       -3.6503282998        2.5179799945
 H         -2.7256748534       -1.1950649235       -0.9185949483
 H         -3.3651211945        0.7910638372        1.1615500170
 H         -3.5156842323        2.3672400035       -0.7585835903
 H         -4.5417710862        0.9530456982       -1.0511999185
 H         -2.9712287530        1.0999341818       -1.8624277367
 C         -0.0007552717        2.8662928273        0.5017121890
 C          0.8582047588        2.7186077667       -0.5961533418
 C          0.3823762405        3.6118854762        1.6053021284
 C          2.1088522447        3.3356769103       -0.5439778908
 C          2.4967376323        4.0682215459        0.5596935450
 C          1.6306844200        4.2096462651        1.6330900186
 H         -0.3026072189        3.7077375475        2.4336888843
 H          3.4737416244        4.5238388248        0.5888970341
 H          1.9288519288        4.7798643090        2.4995437257
 H          2.7760595423        3.2225201931       -1.3852569554
 C          0.4822587418        1.9609618293       -1.7969593276
 O         -0.5587207444        1.3750793828       -1.9727959069
 H          1.2504692455        1.9978923206       -2.5884984712
