  56
        -94.14712064
 C         -2.2711832183        0.4722981370       -2.1444656951
 C         -2.7201808628        0.3604272789       -3.5931239181
 C         -2.1536177151       -0.9323529968       -1.5167146380
 O         -3.1369178914       -1.6086768021       -1.2958685151
 O         -2.2142518615        0.9112177906        0.6039301309
 O         -3.4313713917        1.8854158906        2.8543812275
 N         -3.2578707260        1.2063837133       -1.3739880071
 C         -3.1857763855        1.2869750193       -0.0460615017
 C         -4.4161319055        1.9078969097        0.6163870167
 C         -3.9899075345        2.7035667807        1.8709217515
 N         -5.1703192840        2.6832641960       -0.3570871814
 N         -0.8952444213       -1.3098292436       -1.2492898788
 C         -0.5719705321       -2.5324638397       -0.5485356477
 C          0.2310745812       -3.4804714021       -1.4353055030
 C          0.2145637773       -2.2196205644        0.7329806526
 O          1.0523917175       -2.9743019048        1.1862844415
 N         -0.1088423396       -1.0478664611        1.3121659545
 O          2.8524258058        0.4761007268        2.6624320048
 O          2.2282789631       -0.2540792523        0.6240800348
 C          0.6751482837       -0.5361990953        2.4060697002
 C          2.0452670814       -0.0422990078        1.9423305644
 C         -0.0565671613        0.5729359886        3.1507508722
 H         -1.3087135454        0.9911664562       -2.0693382576
 H         -3.6374272231       -0.2221365810       -3.6467338544
 H         -1.9551684930       -0.1422709968       -4.1788496749
 H         -2.8943782569        1.3471922376       -4.0166869627
 H         -2.7471373910        1.3557286483        2.4089647014
 H         -4.1428611012        1.4513478807       -1.7971397449
 H         -5.0410327107        1.0660141071        0.9422065855
 H         -4.8659791197        3.1848200929        2.3187236581
 H         -3.2803331710        3.4919497942        1.5642575911
 H         -4.6811565649        3.5504420749       -0.5594804611
 H         -6.0796990759        2.9278162923        0.0187814297
 H         -0.1313144670       -0.6652799472       -1.4099609763
 H         -1.5247089186       -2.9989603593       -0.2681052738
 H          1.1211622243       -2.9753289776       -1.8052678504
 H         -0.3690033081       -3.8115578344       -2.2784136432
 H          0.5428916536       -4.3402709208       -0.8499849281
 H         -0.7943038878       -0.4250782682        0.8988100587
 H          0.8956863226       -1.3722557808        3.0874067732
 H         -0.3386489977        1.3586150115        2.4545373538
 H          0.5952587271        0.9923075959        3.9119685276
 H         -0.9526394185        0.1815490824        3.6233006332
 C          3.4589033410       -0.0894397551        0.0450978378
 C          3.5226337342        0.4709705999       -1.2447516811
 C          4.6237919899       -0.5024097044        0.6793981727
 C          4.7751550453        0.6207692692       -1.8491131665
 C          5.9276426381        0.2180874959       -1.2101766094
 C          5.8471072354       -0.3493806554        0.0539437444
 H          4.5642940169       -0.9453742803        1.6602908617
 H          6.8859208864        0.3398863308       -1.6907651307
 H          6.7436274270       -0.6767029237        0.5575862819
 H          4.8246142569        1.0543738798       -2.8375264541
 C          2.3391785172        0.8997247075       -1.9815769218
 O          1.1821265566        0.7141584422       -1.6847663843
 H          2.5897652118        1.4425744483       -2.9147606362
