  56
        -94.14711664
 C         -0.8055743877        1.9361021535        2.1685947738
 C         -1.5568231663        2.8679381844        3.1085962093
 C         -1.4202959693        2.0084286812        0.7621279466
 O         -2.4844083771        1.4660608142        0.5079979401
 O         -0.1040930200       -0.2212220530        0.6862124177
 O         -2.8528035205       -3.4132971758        1.9670271831
 N         -0.9276203209        0.5587406602        2.6159600252
 C         -0.6196330564       -0.4391236570        1.7706451610
 C         -0.9977506116       -1.8357389757        2.2309225869
 C         -2.3061551931       -2.2114192982        1.4875816920
 N          0.0852405165       -2.7620109689        1.9675412536
 N         -0.7360545773        2.7491976421       -0.1176907184
 C         -1.1654685668        2.9149201349       -1.4953876099
 C         -0.6332645177        4.2286851046       -2.0457850243
 C         -0.6918626765        1.7285632420       -2.3659002532
 O          0.0875814165        1.8585024653       -3.2860323668
 N         -1.2607336415        0.5596183280       -2.0188265520
 O         -0.2015129998       -2.4795073722       -1.1788216392
 O          1.2297797654       -0.8214114936       -1.7206266618
 C         -0.9127658816       -0.6912621332       -2.6626555253
 C          0.0556839943       -1.4621800839       -1.7606802451
 C         -2.1600971306       -1.5124700099       -2.9555463904
 H          0.2570270784        2.2012379714        2.1217155807
 H         -1.1741802833        2.7727899572        4.1224552301
 H         -2.6181043315        2.6271271924        3.0985546454
 H         -1.4321592613        3.8979380101        2.7855793901
 H         -3.1036234721       -3.3020934993        2.8911072422
 H         -1.4374942541        0.3782794609        3.4651519786
 H         -1.1895270992       -1.8366797445        3.3141671585
 H         -2.0644605864       -2.3910902371        0.4376691628
 H         -3.0305706556       -1.3873016574        1.5544460886
 H          0.3879325553       -2.6355651042        1.0044433332
 H         -0.2753684589       -3.7103443180        2.0364464296
 H          0.2071884112        3.0374212190        0.1067336435
 H         -2.2624278406        2.9062704886       -1.4887250924
 H         -0.9847198446        4.3681266031       -3.0637696782
 H          0.4537687498        4.2080977796       -2.0651639686
 H         -0.9683960976        5.0613511577       -1.4327704160
 H         -1.8406356850        0.5166278869       -1.1887908150
 H         -0.3771543414       -0.4206647085       -3.5813925231
 H         -2.8315161351       -0.9512956894       -3.5994473660
 H         -2.6740565759       -1.7512554311       -2.0275780350
 H         -1.8877736364       -2.4425060983       -3.4463752750
 C          2.1646541701       -1.1432401796       -0.7543617877
 C          2.6185393824       -0.1024201311        0.0700560868
 C          2.6261133747       -2.4351848936       -0.5692852586
 C          3.5256489556       -0.3905325920        1.0864919853
 C          3.9899434128       -1.6788280272        1.2664648058
 C          3.5422132222       -2.6954036721        0.4382277580
 H          2.2636138642       -3.2311697436       -1.2008223621
 H          4.6943049383       -1.8954378453        2.0548915152
 H          3.8984845333       -3.7043037364        0.5801943357
 H          3.8538283097        0.4181777550        1.7223196087
 C          2.0753156481        1.2405273986       -0.1219428656
 O          2.0982053668        2.1375497223        0.6920474790
 H          1.6153292124        1.3890276363       -1.1116938556
