  56
        -94.14709623
 C         -0.5271328108       -0.8172697925       -1.9390347209
 C          0.5779610610       -1.8646951851       -1.9829263871
 C          0.0124198203        0.5432754658       -1.4703024071
 O          1.2046398391        0.7678937871       -1.3388584331
 O         -3.1903400788       -1.4004528061       -2.6203726285
 O         -3.9140114692        0.9840218380       -1.0618743072
 N         -1.5906699814       -1.2063247281       -1.0358990555
 C         -2.8584777594       -1.3628632994       -1.4488645759
 C         -3.9108882287       -1.3726608321       -0.3318750516
 C         -4.1257541865        0.1179726012        0.0361342388
 N         -5.1698681708       -1.9461290001       -0.7774725684
 N         -0.9478669784        1.4494897377       -1.2259172507
 C         -0.7088243526        2.6709130905       -0.4703191261
 C         -1.7601074588        3.7101343423       -0.8156553232
 C         -0.8249015293        2.2011640375        0.9881998675
 O         -1.8964373173        1.9610768729        1.5060319596
 N          0.3548542549        1.9690920196        1.6015418801
 O          0.1181078699       -0.9823241069        1.4659376851
 O          2.2022200571       -0.2902554134        1.9562712373
 C          0.4360712654        1.0546236124        2.7308804382
 C          0.8733095113       -0.2247084206        2.0230876898
 C          1.4022165203        1.5552407463        3.7892550105
 H         -0.9836407733       -0.7017714735       -2.9298645324
 H          0.2062666832       -2.7830740268       -2.4286826305
 H          0.9228841781       -2.0723862956       -0.9732891754
 H          1.4152439423       -1.4913361011       -2.5651391740
 H         -4.4855531347        0.7067764449       -1.7884331473
 H         -1.3593215927       -1.2099529794       -0.0512038737
 H         -3.5564516004       -1.9132917733        0.5481942532
 H         -3.4128109387        0.4430921294        0.7958216750
 H         -5.1439386835        0.2317644833        0.4250431239
 H         -5.1196607996       -2.9589915976       -0.7673289143
 H         -5.3194197030       -1.6766057968       -1.7485303319
 H         -1.9300226532        1.1896182692       -1.2916588218
 H          0.3056200661        3.0159996098       -0.6901375569
 H         -1.7386878684        3.9296158412       -1.8796275369
 H         -1.5758391168        4.6243086140       -0.2581343694
 H         -2.7411248962        3.3243814877       -0.5484226577
 H          1.2330795532        2.1234578100        1.1137984154
 H         -0.5804351143        0.9322328438        3.1189519203
 H          1.0291099324        2.4858464268        4.2079838248
 H          2.3784097011        1.7326434159        3.3466262428
 H          1.4999183300        0.8230514708        4.5862080346
 C          2.8042208483       -1.1047582736        1.0122753634
 C          3.4553838767       -0.4876312130       -0.0654147486
 C          2.7717915608       -2.4833605184        1.1334950954
 C          4.0851447279       -1.3008743172       -1.0061397343
 C          4.0687778092       -2.6764907117       -0.8799826276
 C          3.4099297333       -3.2676163944        0.1868181460
 H          2.2458569608       -2.9304235767        1.9632447214
 H          4.5613209151       -3.2924990115       -1.6165312746
 H          3.3861234075       -4.3424200822        0.2817787806
 H          4.5850155229       -0.8369235007       -1.8433260902
 C          3.4574683345        0.9725533316       -0.2428509778
 O          3.0733643316        1.7926321436        0.5541611214
 H          3.8938213951        1.2846246258       -1.2074154784
