  56
        -94.14709193
 C         -1.4944640500       -1.4299835508       -1.7895719183
 C         -2.3039265865       -1.9512139543       -2.9751840892
 C         -0.4627283129       -0.4006506147       -2.2632016048
 O          0.7068456480       -0.7254982382       -2.4325234119
 O         -1.3787823119       -2.0064364459        0.9695344806
 O          3.0034373246       -3.1294479107        0.8814355021
 N         -0.7537905821       -2.4991729626       -1.1511770990
 C         -0.6177560561       -2.5496783434        0.1931126286
 C          0.5947551121       -3.3425363847        0.6829853304
 C          1.8434211963       -2.4535666863        0.4945159003
 N          0.5144418600       -3.6827331746        2.0942189219
 N         -0.9222905962        0.8323370742       -2.4891082809
 C         -0.0665690888        1.9217301725       -2.9418626904
 C         -0.9178830473        3.0142552296       -3.5652272992
 C          0.7504948065        2.4724266485       -1.7497570494
 O          0.5283665509        3.5493794133       -1.2384859414
 N          1.7300939726        1.6380551224       -1.3549229147
 O          2.3799781801        1.3959701592        2.1811661233
 O          0.5503012874        1.1350401947        0.8758096426
 C          2.5231173035        1.8949609303       -0.1769642791
 C          1.8335263562        1.4389147743        1.1147992738
 C          3.8947358543        1.2387751058       -0.2882809674
 H         -2.1537503168       -0.9928287154       -1.0336409698
 H         -2.9889284951       -2.7253465776       -2.6402662193
 H         -1.6392650480       -2.3707240077       -3.7275617073
 H         -2.8771268461       -1.1436810501       -3.4219024324
 H          2.8119330593       -3.5406391845        1.7360357882
 H          0.0108567197       -2.8511289694       -1.7126842756
 H          0.7230913339       -4.2602083786        0.1000168471
 H          1.7101506090       -1.5387006472        1.0923294048
 H          1.9701615840       -2.1721093785       -0.5537958796
 H         -0.1541071027       -4.4320694549        2.2379844530
 H          0.1545143068       -2.8723375409        2.5953171013
 H         -1.8690229885        1.0743885905       -2.2297979263
 H          0.6368987923        1.5019395058       -3.6711188363
 H         -1.5097235100        2.6160062848       -4.3854679861
 H         -0.2781604252        3.8080962146       -3.9396361654
 H         -1.5788309824        3.4401211037       -2.8140657025
 H          1.7604983410        0.7030664676       -1.7530189817
 H          2.6251216243        2.9859526883       -0.0865766928
 H          4.4428861348        1.6560312188       -1.1281268706
 H          3.7876370038        0.1655769791       -0.4324983387
 H          4.4534530571        1.4115038948        0.6269414700
 C         -0.3466053687        0.7118872375        1.8427911184
 C         -1.7000098240        0.9063788136        1.5244539533
 C          0.0076886924        0.0389443218        2.9993927289
 C         -2.6798636167        0.3843626287        2.3634168806
 C         -2.3255795465       -0.2757478122        3.5228611777
 C         -0.9874114259       -0.4384618667        3.8386886629
 H          1.0458883315       -0.1150667827        3.2455383854
 H         -3.0881701167       -0.6742267640        4.1739090058
 H         -0.7044912851       -0.9613926023        4.7403897478
 H         -3.7146888090        0.5193011853        2.0880492702
 C         -2.0555939133        1.6362725680        0.3066565230
 O         -3.0438720355        1.4423219589       -0.3643994939
 H         -1.3181534694        2.4045257648        0.0148497337
