  56
        -94.14708531
 C         -2.3565212971       -0.1028010704       -1.9414206349
 C         -2.1284023074       -1.1051151905       -3.0594358726
 C         -1.1123473514        0.7691802972       -1.6916758432
 O          0.0098021173        0.4589929447       -2.0439622844
 O         -3.6671735182        0.9434471795        0.2964838983
 O         -5.1588290497        0.3527226062        2.5084841538
 N         -2.6469338908       -0.8018621652       -0.6994739765
 C         -3.2181084471       -0.2027164106        0.3514521234
 C         -3.3382956964       -1.0363263757        1.6287540283
 C         -4.7977993306       -0.9412879822        2.1290369196
 N         -2.9558401120       -2.4278048274        1.5428125877
 N         -1.4110614106        1.9048585456       -1.0298472225
 C         -0.3585359698        2.7270027348       -0.4785429323
 C         -0.9434836564        4.0342090554        0.0446365097
 C          0.3416189024        1.9699038164        0.6601747298
 O         -0.1858079100        1.0656747518        1.2704055922
 N          1.5788230684        2.4373409366        0.9452460965
 O          4.3350045876        0.2786313734        1.5090647924
 O          2.4632154294        0.0944378016        0.2538771708
 C          2.4541894464        1.7719837339        1.8846235126
 C          3.2328211379        0.6365488418        1.2023844689
 C          3.3995473866        2.7527278044        2.5616380032
 H         -3.2086921491        0.5507198918       -2.1617507415
 H         -1.2645547896       -1.7230359359       -2.8272565024
 H         -1.9332469568       -0.5797470797       -3.9900485559
 H         -3.0022495374       -1.7397435273       -3.1833227891
 H         -4.8599185073        0.9462251544        1.7967421850
 H         -2.1282325941       -1.6655075954       -0.5634296056
 H         -2.6957696443       -0.5500622806        2.3742902475
 H         -4.9090004955       -1.5815962795        3.0071969157
 H         -5.4660373285       -1.3187587268        1.3362196855
 H         -1.9763583183       -2.5397809212        1.3094147196
 H         -3.5139291391       -2.9184106017        0.8531584201
 H         -2.3179356285        1.9465179458       -0.5660683248
 H          0.3693781112        2.9100088929       -1.2786312422
 H         -1.4484582987        4.5628239253       -0.7599707903
 H         -0.1609781191        4.6707293394        0.4495032461
 H         -1.6648466440        3.8229358626        0.8309401907
 H          2.0105577220        3.0951464056        0.3147944477
 H          1.8013497635        1.2879443207        2.6245324981
 H          3.9973977354        3.2768749731        1.8189115820
 H          4.0725216998        2.2099792145        3.2186588118
 H          2.8379255059        3.4784899503        3.1427180191
 C          2.8519307623       -0.9709765956       -0.5312970795
 C          1.8611770759       -1.9117956676       -0.8528289026
 C          4.1323479248       -1.0984846800       -1.0436286000
 C          2.1850405101       -2.9676138235       -1.7047395698
 C          3.4615622981       -3.0958003726       -2.2134219912
 C          4.4314094995       -2.1636188056       -1.8783201442
 H          4.8901648985       -0.3740950227       -0.7914681857
 H          3.7044796329       -3.9174265999       -2.8695373266
 H          5.4315198573       -2.2580734226       -2.2735198885
 H          1.4102220142       -3.6797170661       -1.9465952863
 C          0.5149410216       -1.7957905614       -0.2976253716
 O         -0.3974267851       -2.5558884277       -0.5490044886
 H          0.3715726690       -0.9588979815        0.4017371237
