  56
        -94.14708121
 C         -2.8834673761        1.0709098950       -1.7123756855
 C         -2.7857018697        1.2853275770       -3.2129902533
 C         -2.2705751373        2.2426942246       -0.9312833313
 O         -1.6373926071        3.1413764055       -1.4594349898
 O         -3.4275874185       -0.5433180195        0.4837523018
 O         -0.5073545640       -3.1037543007        1.9889345997
 N         -2.1551440372       -0.1295670470       -1.3253946654
 C         -2.4697750885       -0.8267851541       -0.2243190511
 C         -1.5834364122       -2.0211450099        0.0866744138
 C         -1.1718336525       -1.9341780251        1.5746493840
 N         -2.3229060387       -3.2394398393       -0.2136593888
 N         -2.4599294332        2.1375694721        0.3951676156
 C         -1.6458200776        2.8658288692        1.3585849576
 C         -2.1855011992        2.6505151532        2.7603003798
 C         -0.2269996705        2.2947762918        1.1987233897
 O          0.1929851854        1.3454238598        1.8354158829
 N          0.4918376721        2.8995106466        0.2345469262
 O          0.6927918570        0.1844376855       -0.7710303389
 O          2.5749912412        0.1934650212        0.4635204854
 C          1.7384991439        2.2920833054       -0.1946878513
 C          1.5744725586        0.7762086986       -0.2024762795
 C          2.0973951755        2.7614552211       -1.5985655988
 H         -3.9232803359        0.9296885192       -1.3963920070
 H         -1.7484590686        1.4490851331       -3.4952570442
 H         -3.3572814524        2.1645467242       -3.4960213051
 H         -3.1716394584        0.4192880874       -3.7434648138
 H          0.3298621226       -3.1653943537        1.5144947368
 H         -1.2480312814       -0.2647929831       -1.7474749954
 H         -0.6825840875       -2.0066958625       -0.5397944990
 H         -2.0727874822       -1.8665067117        2.1892607535
 H         -0.5578162071       -1.0399645898        1.7402620124
 H         -3.2670249842       -3.1486776933        0.1522934134
 H         -1.8862371235       -4.0107612874        0.2869795045
 H         -2.9497196882        1.3174903234        0.7438838515
 H         -1.6473744830        3.9264938075        1.0837356183
 H         -2.0800557870        1.6026103042        3.0319320508
 H         -3.2339656826        2.9320868876        2.8086235548
 H         -1.6219000231        3.2492056696        3.4705673124
 H         -0.0105193319        3.4600467083       -0.4498305550
 H          2.5317794566        2.5380740377        0.5215044694
 H          1.2653709555        2.5652803585       -2.2711762103
 H          2.9695167235        2.2239236505       -1.9603825051
 H          2.3072707937        3.8277301825       -1.5908979446
 C          2.6303081479       -1.1838120477        0.5230987400
 C          2.6911936225       -1.9716609003       -0.6349588891
 C          2.6265473999       -1.7736260847        1.7789221211
 C          2.7171171255       -3.3608959117       -0.4937121315
 C          2.7259231605       -3.9474604792        0.7561130570
 C          2.6898867110       -3.1517331178        1.8944107146
 H          2.5657072290       -1.1376721629        2.6475991298
 H          2.7584120076       -5.0219424916        0.8487240596
 H          2.6948248576       -3.6060140601        2.8729996689
 H          2.7528169842       -3.9733692462       -1.3826810241
 C          2.7866938698       -1.3870086414       -1.9807285244
 O          3.1358330768       -0.2658055962       -2.2452079091
 H          2.5328422315       -2.1079339095       -2.7829648661
