  56
        -94.14705383
 C          1.2535636009       -2.6113226826        0.3610407618
 C          1.9342691576       -3.9162479987        0.7489511119
 C         -0.2197328962       -2.8929428275       -0.0052729191
 O         -0.5078257375       -3.5828669999       -0.9611568894
 O          0.2943683484       -0.5481343332       -1.3228291783
 O          1.5022361394        1.6719958180       -2.3248952720
 N          1.9102002222       -2.0434310528       -0.8004137119
 C          1.3701859901       -1.0934430193       -1.5550858450
 C          2.2333637485       -0.6158757715       -2.7200127212
 C          2.6210784398        0.8388503176       -2.3763465667
 N          3.4113273596       -1.4544020180       -2.8773788279
 N         -1.1035090045       -2.3502191586        0.8436322488
 C         -2.5358888531       -2.4497009667        0.6676538482
 C         -3.1829933832       -3.1452394890        1.8615848617
 C         -3.1592294433       -1.0578185769        0.4644420815
 O         -4.2761129345       -0.7796629931        0.8499772830
 N         -2.3571780173       -0.1979152274       -0.1869155120
 O         -1.9068019929        3.3456188391        0.1507938067
 O         -0.5947386779        1.5474819109        0.5012910416
 C         -2.7375792128        1.1639791495       -0.4440079729
 C         -1.7257925000        2.1605573960        0.1021432941
 C         -2.8777986196        1.4289261272       -1.9493295577
 H          1.2960990008       -1.8914438200        1.1875023977
 H          1.4814692513       -4.3136217873        1.6533224388
 H          2.9957482284       -3.7575572748        0.9288182761
 H          1.8071079341       -4.6428735163       -0.0504263227
 H          0.7907957767        1.1647420821       -1.8896420060
 H          2.8117317748       -2.3982066874       -1.0917563021
 H          1.5912534536       -0.5775943788       -3.6159707506
 H          3.2846953607        1.2419132004       -3.1482951503
 H          3.1629153296        0.8443452731       -1.4157939955
 H          4.1172865085       -0.9707362444       -3.4218021387
 H          3.1675308813       -2.3016472132       -3.3808412085
 H         -0.7880887349       -1.7065055822        1.5571478706
 H         -2.7038026239       -3.0343062007       -0.2456314683
 H         -2.9146943663       -2.6277519660        2.7798295236
 H         -2.8555748396       -4.1794443797        1.9242950235
 H         -4.2628007622       -3.1110546876        1.7523074539
 H         -1.4418332197       -0.4852602182       -0.5143532848
 H         -3.7000029784        1.3367826646        0.0537844291
 H         -3.6732019752        0.8090559221       -2.3533741210
 H         -1.9469721769        1.1825048745       -2.4558044254
 H         -3.1153852413        2.4748826482       -2.1219131804
 C          0.5270095617        2.2624458334        0.8344557717
 C          1.3094733687        1.8098128760        1.9128996582
 C          0.9280099319        3.3748456159        0.1048726478
 C          2.4771288608        2.5095761929        2.2340921551
 C          2.8697467835        3.6119029836        1.5063385315
 C          2.0925372876        4.0401162280        0.4392247366
 H          0.3342358326        3.7085864611       -0.7296743736
 H          3.7762205418        4.1375078925        1.7642720186
 H          2.3958256954        4.8971534950       -0.1416550015
 H          3.0768229588        2.1636128532        3.0638275727
 C          0.9620398380        0.6363164021        2.7073988502
 O          0.1038702622       -0.1815257145        2.4742291223
 H          1.6056769959        0.5228537747        3.6036672543
