  56
        -94.14705084
 C          0.3168505888       -3.4730044163        0.8269730973
 C          0.2151285939       -4.7006517489       -0.0626970940
 C         -1.0700989913       -2.9417511978        1.2167051729
 O         -2.0931861935       -3.2616476827        0.6310986456
 O          1.7078230260       -1.3637266143        1.9988685198
 O          4.2851792147        0.9852572886       -0.3648398162
 N          1.0121991495       -2.4035495158        0.1250308933
 C          1.6312471962       -1.4005525394        0.7805046980
 C          2.2741773613       -0.3318040221       -0.1015324186
 C          3.7021229616       -0.0386191954        0.3911322190
 N          2.3479116395       -0.6167099768       -1.5241533737
 N         -1.0274317714       -2.0584547457        2.2239989302
 C         -2.1734813516       -1.2362146979        2.5853364297
 C         -1.9335850521       -0.5743642190        3.9299223707
 C         -2.3204869468       -0.1954475512        1.4635976030
 O         -1.8463490471        0.9204761017        1.5181416937
 N         -2.9865607733       -0.6579173720        0.3825883013
 O         -0.6959641692       -0.4503616203       -1.3589406062
 O         -1.2985974229        1.7156689714       -1.3456257878
 C         -2.9790543665        0.1352050723       -0.8329749178
 C         -1.5246867656        0.4156207934       -1.2120738232
 C         -3.6774220427       -0.6209924873       -1.9544219492
 H          0.8922891955       -3.6847089604        1.7347484527
 H          1.2005719718       -5.0028251237       -0.4073869575
 H         -0.4197576150       -4.4841381950       -0.9187993995
 H         -0.2340293520       -5.5188563663        0.4927506258
 H          4.0452221540        0.8132251154       -1.2865828184
 H          0.7269599159       -2.2504159665       -0.8323631653
 H          1.6822551993        0.5832179608        0.0242195612
 H          4.2998170356       -0.9612028704        0.3170646763
 H          3.6833700991        0.2842941604        1.4322569084
 H          1.4241668273       -0.5940346019       -1.9403314295
 H          2.7643196489       -1.5287739977       -1.6833556936
 H         -0.1159577893       -1.7465878043        2.5547509924
 H         -3.0595433733       -1.8807143059        2.6026871817
 H         -1.1001620697        0.1196856778        3.8493595382
 H         -1.7095335355       -1.3228242413        4.6852145502
 H         -2.8162174023       -0.0166449842        4.2302569794
 H         -3.0953120097       -1.6663731047        0.2891502477
 H         -3.4659944980        1.0959038389       -0.6308163625
 H         -3.7043654318       -0.0184033012       -2.8587410381
 H         -4.6959897988       -0.8567205674       -1.6582809737
 H         -3.1448106252       -1.5472627315       -2.1598340952
 C         -0.0121132596        2.1601938681       -1.6571994585
 C          0.6398852664        3.0268558943       -0.7731736498
 C          0.5894844092        1.7783059803       -2.8445082592
 C          1.9122367970        3.4873418481       -1.1098714374
 C          2.5233838122        3.0912257172       -2.2831800069
 C          1.8591952445        2.2407809238       -3.1518090389
 H          0.0632110715        1.1225400201       -3.5221952288
 H          3.5151252440        3.4431660998       -2.5195623499
 H          2.3256324998        1.9306759631       -4.0742235775
 H          2.4070514452        4.1486061560       -0.4151515868
 C          0.0251784711        3.4486357713        0.5036747029
 O          0.4783533765        4.3188080616        1.2020830176
 H         -0.8855360909        2.8959145057        0.7807805524
