  56
        -94.14704613
 C         -0.1092167348       -3.5898022702        0.1260804621
 C         -0.4707252186       -4.5131678695       -1.0249083973
 C         -1.3582946590       -3.0055540177        0.8008646864
 O         -2.4702820928       -3.0435821478        0.3002195037
 O          1.7004272395       -2.0679636159        1.6037531116
 O          4.2259725263        0.7060738602       -0.2856641779
 N          0.6717655010       -2.4611680283       -0.3633391692
 C          1.4869416386       -1.7502098998        0.4436058418
 C          2.1535878406       -0.5363270400       -0.1997519986
 C          3.6195856765       -0.4346947858        0.2542850446
 N          2.1357331792       -0.4803651868       -1.6521869546
 N         -1.0807432212       -2.3961346142        1.9655730390
 C         -2.0107623167       -1.4552996348        2.5737298522
 C         -1.5096139273       -1.0418705437        3.9451735702
 C         -2.0604016334       -0.2642720692        1.6070452708
 O         -1.2750260943        0.6635702677        1.6465227712
 N         -3.0130107338       -0.3605015508        0.6560391723
 O         -0.8704806233       -0.1145898615       -1.2772571554
 O         -1.2079689241        2.0784890789       -0.9127311662
 C         -3.0029450137        0.6200877384       -0.4155083818
 C         -1.5649534977        0.7995798536       -0.9027342613
 C         -3.8823687117        0.1488965143       -1.5656376275
 H          0.5040999303       -4.1036091619        0.8740942835
 H          0.4253664832       -4.8390976240       -1.5463514942
 H         -1.1275444811       -3.9953688390       -1.7200939863
 H         -0.9983281547       -5.3830265127       -0.6445000320
 H          3.9235410239        0.7652933706       -1.2032468437
 H          0.3078820758       -2.0091976440       -1.1915553287
 H          1.6216732313        0.3476794541        0.1751370392
 H          4.1538471173       -1.3435583964       -0.0653083452
 H          3.6751517443       -0.3601970110        1.3404998914
 H          1.2005606653       -0.2884539735       -1.9919926793
 H          2.4576317057       -1.3594125583       -2.0446770206
 H         -0.1030268253       -2.3049820179        2.2370261529
 H         -2.9965300064       -1.9301849293        2.6270500639
 H         -2.2374688884       -0.3950943199        4.4273834839
 H         -0.5761847818       -0.4936164850        3.8392311305
 H         -1.3446758481       -1.9184414470        4.5658712084
 H         -3.3841334761       -1.2843966410        0.4505422261
 H         -3.3457271423        1.5835709266       -0.0196334985
 H         -4.8985480422       -0.0041828153       -1.2119627106
 H         -3.4984642522       -0.7896078020       -1.9602197520
 H         -3.8957470076        0.8901541408       -2.3607081973
 C          0.0767415919        2.4157933756       -1.3431111031
 C          0.9577119570        3.0327660243       -0.4491331706
 C          0.4537513080        2.1756349224       -2.6538480187
 C          2.2255264771        3.3927377650       -0.9039567765
 C          2.6091839286        3.1400065671       -2.2063865089
 C          1.7215731898        2.5358253387       -3.0816480416
 H         -0.2452199654        1.7087723121       -3.3321167353
 H          3.5980124479        3.4133592915       -2.5401627782
 H          2.0113500734        2.3396911221       -4.1025931821
 H          2.8991076292        3.8575615124       -0.2005747618
 C          0.5821964081        3.2952107278        0.9556811910
 O          1.2248614255        3.9903764390        1.6994653768
 H         -0.3415070808        2.7928487249        1.2827675165
