  56
        -94.14703405
 C         -2.5151666988        0.2592397233       -2.1967503409
 C         -2.9781905170       -0.0754608757       -3.6064954886
 C         -2.1833239730       -1.0373628812       -1.4291273030
 O         -3.0556685435       -1.8059876586       -1.0833534394
 O         -2.5233682741        0.8759783969        0.5217584874
 O         -3.7506474893        2.0546547169        2.6463257989
 N         -3.5764951064        0.9331850284       -1.4726214006
 C         -3.5201241609        1.1160385040       -0.1545995916
 C         -4.7976356854        1.6820868745        0.4649820264
 C         -4.4256159766        2.6728585394        1.5923932226
 N         -5.6494241637        2.2498634468       -0.5690750035
 N         -0.8738170238       -1.2236625719       -1.2057783342
 C         -0.3655012572       -2.2903254337       -0.3703067535
 C          0.5194828681       -3.2447473563       -1.1662766572
 C          0.4215299802       -1.6820029419        0.7946647407
 O          1.4575654756       -2.1660864495        1.2219400369
 N         -0.0891087459       -0.5522479800        1.2955297907
 O          2.9247654064       -0.3030516148        2.9839492474
 O          2.4542785151        0.2475513688        0.8245256416
 C          0.6459397013        0.1569547309        2.3201258957
 C          2.1448181178       -0.0662737038        2.1066025928
 C          0.3422590310        1.6500108191        2.2488730728
 H         -1.6327276497        0.9107119454       -2.2179048649
 H         -3.8087151148       -0.7764756103       -3.5601539241
 H         -2.1661718124       -0.5361025766       -4.1627608730
 H         -3.2947426699        0.8247044307       -4.1290219948
 H         -3.0537252845        1.5100792977        2.2389276015
 H         -4.4781007892        1.0675112205       -1.9107827508
 H         -5.3222767902        0.8299232779        0.9155490364
 H         -5.3356881674        3.1135424837        2.0132917023
 H         -3.8159982814        3.4850029213        1.1580885532
 H         -5.2732872774        3.1437962847       -0.8720740356
 H         -6.5794276187        2.4202679919       -0.2032644331
 H         -0.2035609078       -0.5061510133       -1.4570760253
 H         -1.2359097154       -2.8262790298        0.0282497582
 H          1.3309603701       -2.6923310962       -1.6357132703
 H         -0.0626019132       -3.7482050198       -1.9332408519
 H          0.9512890606       -3.9807308519       -0.4947373319
 H         -0.9406309990       -0.1316167145        0.9393085540
 H          0.4026623971       -0.2397781914        3.3155549250
 H          0.9308916081        2.1872698322        2.9881420407
 H         -0.7122637584        1.8209419201        2.4473084450
 H          0.5814795485        2.0245144298        1.2565863222
 C          3.6540360874        0.0172816086        0.2294051977
 C          3.6780695176        0.1435586065       -1.1786879022
 C          4.8235470732       -0.3147818975        0.9057174668
 C          4.8878402592       -0.0490162365       -1.8540886165
 C          6.0413643020       -0.3703096296       -1.1740153771
 C          5.9998216845       -0.5102779402        0.2063840037
 H          4.8016064908       -0.4307925444        1.9762145004
 H          6.9665563427       -0.5176991554       -1.7093931044
 H          6.8961576030       -0.7715423966        0.7482627734
 H          4.9019085971        0.0523435829       -2.9300456997
 C          2.4908751842        0.4286057153       -1.9704166555
 O          1.3529635246        0.5781504821       -1.5840362978
 H          2.7114825051        0.4887143524       -3.0565422101
