  56
        -94.14700728
 C         -2.2296211443       -0.0100935181       -1.7256889705
 C         -1.9986106570       -1.1351559584       -2.7188895490
 C         -0.9376467638        0.7793185784       -1.4378818890
 O          0.1822019593        0.3587832340       -1.6617216211
 O         -3.6002215220        1.3782112777        0.3064932213
 O         -5.6536622623        0.8873629307        2.0610466800
 N         -2.7089987744       -0.5478369371       -0.4646940703
 C         -3.3092818048        0.1892071302        0.4649281186
 C         -3.6864202948       -0.5304287416        1.7530259624
 C         -5.2215998474       -0.4297099167        1.8945764536
 N         -3.2752246333       -1.9202455121        1.7246849839
 N         -1.1950504715        1.9919555649       -0.9122438559
 C         -0.1193592774        2.8012994313       -0.3839865067
 C         -0.6872843158        4.0640107631        0.2526411141
 C          0.6574069463        1.9915770224        0.6651106556
 O          0.1336092424        1.1570847916        1.3694126921
 N          1.9602966876        2.3439696619        0.7688707580
 O          4.4545086298        0.8054427364       -0.1301258070
 O          2.7521556353       -0.5234827288        0.5636592233
 C          2.9083395969        1.5799607209        1.5627945760
 C          3.5112938314        0.5723475366        0.5749909936
 C          3.9683798650        2.4841069250        2.1687946607
 H         -2.9841445219        0.6940888527       -2.0989318620
 H         -1.2432494410       -1.8141309380       -2.3337872385
 H         -1.6454185779       -0.7272737604       -3.6619534086
 H         -2.9217736676       -1.6833778017       -2.8876931128
 H         -5.1612084198        1.4333605369        1.4218785022
 H         -2.4325818147       -1.4946547727       -0.2263597937
 H         -3.2426232568        0.0544766942        2.5799972590
 H         -5.5455961865       -0.9834016837        2.7816600966
 H         -5.6839930012       -0.8947492240        1.0095763030
 H         -3.6880786058       -2.4253725954        2.5002846052
 H         -2.2666980008       -2.0012856110        1.8039982853
 H         -2.1289296799        2.1454398933       -0.5309815314
 H          0.5568865926        3.0506557483       -1.2121918059
 H         -1.2482594092        4.6321221920       -0.4852010004
 H          0.1131977279        4.6861959438        0.6448432669
 H         -1.3542705872        3.7931319388        1.0679469150
 H          2.3658119438        2.9450543258        0.0670536566
 H          2.3279321325        1.0481544015        2.3220601696
 H          4.6062460262        1.9126557440        2.8371021677
 H          3.4984056411        3.2873198297        2.7295898866
 H          4.5871218421        2.9068429135        1.3804546611
 C          2.8226593377       -1.5148309039       -0.3962244092
 C          1.6377411446       -2.2357282286       -0.6169157588
 C          3.9743763780       -1.8328111105       -1.0981387393
 C          1.6392660738       -3.2649113433       -1.5570606228
 C          2.7840430585       -3.5759137869       -2.2626205920
 C          3.9466115310       -2.8590427008       -2.0296817271
 H          4.8836304111       -1.2800757888       -0.9288282419
 H          2.7742039100       -4.3719150573       -2.9913690665
 H          4.8473472856       -3.0967921926       -2.5752942409
 H          0.7190109928       -3.8077732409       -1.7144724801
 C          0.4049749762       -1.9084169364        0.1035623287
 O         -0.6394767249       -2.5061937580       -0.0379750911
 H          0.4837628908       -1.0645025122        0.8037662054
