  56
        -94.14700399
 C         -2.5572904922       -2.3156005838       -0.6422750008
 C         -2.9805899463       -2.6940517396       -2.0521946180
 C         -3.0111938246       -0.8861086773       -0.2923465011
 O         -3.4973703348       -0.1264128799       -1.1184027558
 O         -1.0437486047       -2.5793416239        1.7357744511
 O          0.9478784135       -4.8456693244       -0.4921309014
 N         -1.1151341810       -2.4170858774       -0.5161942880
 C         -0.4714947147       -2.5098494106        0.6567739036
 C          1.0417128170       -2.6024282128        0.5184259833
 C          1.4386078211       -4.0913616068        0.5836209455
 N          1.4497872320       -2.0281378719       -0.7539607058
 N         -2.8233075715       -0.5791393145        0.9949671152
 C         -3.0815791391        0.7373197467        1.5579890095
 C         -3.0745369585        0.6499183989        3.0740581540
 C         -1.9912450861        1.6945078030        1.0501409355
 O         -1.0318419749        2.0449335819        1.7079438143
 N         -2.1984085571        2.1087551012       -0.2177649304
 O          0.1963884919        0.7919703823       -0.8630533516
 O          1.2164706817        2.7858744385       -0.6496780124
 C         -1.1298510521        2.8155973231       -0.8881225850
 C          0.1506643927        1.9914847361       -0.7815185233
 C         -1.4760709251        3.0285725116       -2.3569537855
 H         -2.9990726808       -2.9970476000        0.0971719075
 H         -2.5672539061       -1.9826525836       -2.7629276235
 H         -4.0633607754       -2.6614558633       -2.1321632273
 H         -2.6336398908       -3.6939104763       -2.2997279259
 H         -0.0092757450       -4.7392902857       -0.5330204181
 H         -0.5321431129       -2.2451310642       -1.3273194381
 H          1.4797886419       -2.1069559299        1.4004451699
 H          1.0932288077       -4.4974739024        1.5447549740
 H          2.5262929169       -4.1829362925        0.5340923102
 H          2.4379583126       -2.1892726007       -0.9100192071
 H          1.2840339816       -1.0262162989       -0.7534847051
 H         -2.3150606517       -1.2421244552        1.5820249303
 H         -4.0512731030        1.0847488247        1.1796372923
 H         -2.0844648235        0.3575587562        3.4157220317
 H         -3.8034968811       -0.0803876723        3.4149382575
 H         -3.3122223535        1.6199052862        3.5018682710
 H         -2.8483833163        1.5659673780       -0.7888358951
 H         -0.9553678420        3.7726344627       -0.3820332725
 H         -0.6798724568        3.5721167546       -2.8589088063
 H         -2.3970251478        3.6002705598       -2.4344084979
 H         -1.6159829760        2.0669029568       -2.8460131091
 C          2.4891093219        2.2243151839       -0.6227079249
 C          2.8711317971        1.2743550175        0.3282828232
 C          3.3846405875        2.6490771479       -1.5932393555
 C          4.1631921112        0.7487169968        0.2584381263
 C          5.0551566353        1.1702154004       -0.7058211174
 C          4.6671953739        2.1312359018       -1.6273967381
 H          3.0622967007        3.3851633041       -2.3133751750
 H          6.0512172400        0.7565636033       -0.7408573315
 H          5.3598840292        2.4726616630       -2.3812809987
 H          4.4413955584        0.0088173232        0.9945823432
 C          1.9877727572        0.8287687921        1.4256092230
 O          2.2086483739       -0.1588358340        2.0832236781
 H          1.1158029997        1.4690383812        1.6291805255
