  56
        -94.14699756
 C         -2.1313842705       -0.2786349823       -2.0897351539
 C         -1.4487793119       -0.9867745543       -3.2467163069
 C         -1.4990494393        1.0956332382       -1.8135073112
 O         -0.3995425934        1.4217457979       -2.2167435950
 O         -3.7395290349       -0.1739829531        0.2170018628
 O         -1.6346997534       -0.3044748136        3.1463100434
 N         -1.9735456073       -1.0581144987       -0.8710359331
 C         -2.7651575107       -0.9130512353        0.2016256397
 C         -2.4066280609       -1.8233837285        1.3738728340
 C         -2.6875553571       -1.1294808300        2.7284892974
 N         -3.1705924067       -3.0492694087        1.1719165336
 N         -2.2813117879        1.8729388616       -1.0385317297
 C         -1.7356054095        3.0220530391       -0.3325348860
 C         -2.8528058694        3.9599463863        0.0899089552
 C         -1.0152762261        2.4133827267        0.8790026076
 O         -1.5926008884        2.1889767069        1.9288537027
 N          0.2622901291        2.0787394539        0.6450272955
 O          0.6388041670       -0.6373830865        0.1991507734
 O          2.7035856568       -0.3577021930        1.0146598146
 C          1.0618602770        1.2962550592        1.5687012637
 C          1.4212448697        0.0091697507        0.8460136710
 C          2.2804011725        2.0820193850        2.0376016963
 H         -3.2054151931       -0.1584516560       -2.2691012796
 H         -0.3765888214       -1.0187619143       -3.0662467768
 H         -1.6246797902       -0.4407189059       -4.1693411638
 H         -1.8304821472       -1.9990480834       -3.3494253576
 H         -1.7327154986        0.5789194349        2.7468386226
 H         -1.0823124662       -1.5165838421       -0.7552882319
 H         -1.3407902429       -2.0742550917        1.3318851238
 H         -2.7890912475       -1.9068414619        3.4965374193
 H         -3.6333879502       -0.5786508846        2.6594725566
 H         -4.1609869182       -2.8262392902        1.1430624852
 H         -3.0202568483       -3.6833685403        1.9503908870
 H         -3.0976395277        1.4387963644       -0.6089722874
 H         -1.0200039678        3.5140056030       -0.9981384246
 H         -3.4472269782        4.2491100250       -0.7723838642
 H         -2.4356130425        4.8504807917        0.5519790952
 H         -3.4891062923        3.4590592751        0.8156755583
 H          0.6471240350        2.1824392028       -0.2874716287
 H          0.4163249397        1.0375262019        2.4193792076
 H          2.9043046356        2.3381374212        1.1853263802
 H          2.8616239553        1.4922752017        2.7398745303
 H          1.9529332048        2.9954254940        2.5267702989
 C          3.2083894824       -1.2841270704        0.1217640999
 C          3.2011226833       -1.0138553537       -1.2562934555
 C          3.7415196254       -2.4663634819        0.6079298998
 C          3.7222840276       -1.9757699126       -2.1225937114
 C          4.2523674995       -3.1549378350       -1.6378258130
 C          4.2702762745       -3.3952244945       -0.2718905226
 H          3.7338191290       -2.6445430592        1.6718361514
 H          4.6537739290       -3.8877297514       -2.3206380766
 H          4.6875245105       -4.3141858339        0.1104652768
 H          3.7149889351       -1.7774222600       -3.1844974116
 C          2.7182620263        0.2635598145       -1.8018707483
 O          2.4176479766        1.2376962269       -1.1583760983
 H          2.6752728087        0.2808823708       -2.9056985090
