  56
        -94.14699064
 C          2.4834413095       -1.7202322618       -0.2807016158
 C          3.6098381662       -2.5992735381       -0.8041929720
 C          1.1252908018       -2.3509325859       -0.6309471981
 O          0.7561425142       -2.4428677106       -1.7911418517
 O          0.4337832460        0.0768617214       -0.2717159738
 O          2.3531618225        3.9772687057       -1.2463768196
 N          2.5249081125       -0.4155188022       -0.9163608619
 C          1.4431687686        0.3703172519       -0.8938034141
 C          1.5864006551        1.6754619084       -1.6555489809
 C          2.2667050563        2.6853986609       -0.7085247843
 N          2.4232684074        1.4654659573       -2.8369941352
 N          0.4353607179       -2.8376505395        0.4085361055
 C         -0.8679713669       -3.4591857144        0.2485110559
 C         -1.1141371966       -4.4329750410        1.3904270416
 C         -1.9904772691       -2.3976943769        0.1883867666
 O         -2.8665039803       -2.3212337798        1.0242382045
 N         -1.9150017999       -1.6111176279       -0.9001536667
 O         -1.7309738910        1.6497751784       -1.4322323815
 O         -2.0586829856        0.8331646921        0.6485993181
 C         -2.8208873992       -0.5013957634       -1.1189873950
 C         -2.1324659069        0.7994467075       -0.6878542475
 C         -3.2436142736       -0.4348903389       -2.5792054474
 H          2.5601257838       -1.5869885777        0.8053037571
 H          3.4738088735       -2.7721994382       -1.8696451570
 H          3.6002380883       -3.5579442983       -0.2925213349
 H          4.5726865453       -2.1224441841       -0.6353111255
 H          2.9423905064        3.9534000071       -2.0087910549
 H          3.2839199597       -0.1756804144       -1.5366978766
 H          0.5745067622        2.0430748935       -1.8846323968
 H          3.2639539091        2.3060955335       -0.4455578604
 H          1.6687724621        2.7760977454        0.1999503235
 H          2.0116105845        0.7390474601       -3.4154454155
 H          2.4349876684        2.3106259194       -3.4004502212
 H          0.6948290598       -2.5592925031        1.3458565398
 H         -0.8520626154       -3.9808757978       -0.7164425231
 H         -2.0724827436       -4.9246635458        1.2522181068
 H         -1.1450822442       -3.8946813876        2.3346941040
 H         -0.3274592835       -5.1821302939        1.4271398538
 H         -1.1045791491       -1.6833717033       -1.5045977634
 H         -3.6750567011       -0.6693990877       -0.4515671076
 H         -3.9514659286        0.3758829844       -2.7264903569
 H         -3.7058879588       -1.3721365595       -2.8762677409
 H         -2.3741660154       -0.2502935992       -3.2053043539
 C         -1.2413730100        1.7500834922        1.2809069608
 C         -0.2415036347        1.2477869997        2.1277327721
 C         -1.3729850801        3.1141667909        1.0842854892
 C          0.6111071279        2.1409728724        2.7712166583
 C          0.4654309241        3.5037740462        2.5905670058
 C         -0.5221463841        3.9862364807        1.7457468974
 H         -2.1291113724        3.4875504240        0.4119620814
 H          1.1274140700        4.1907622228        3.0953217358
 H         -0.6264810552        5.0489551045        1.5895004088
 H          1.3833273590        1.7401143538        3.4109220733
 C         -0.0757966061       -0.2031750599        2.2516840032
 O          0.9311222230       -0.7687446295        2.6148296241
 H         -0.9796365799       -0.7702297301        1.9815473159
