  56
        -94.14697648
 C         -2.2897411089       -2.5110936041       -0.6901519910
 C         -2.6449017043       -2.9090332856       -2.1134753099
 C         -2.8938513794       -1.1404441791       -0.3317039472
 O         -3.4440377012       -0.4250474999       -1.1571355884
 O         -0.8053281391       -2.6614811109        1.7146562181
 O          1.4563226966       -4.6865257379       -0.4894103802
 N         -0.8474139220       -2.4698252215       -0.5354338717
 C         -0.2211749439       -2.5180553142        0.6493915908
 C          1.2965462445       -2.4581551357        0.5447936429
 C          1.8394695272       -3.9003851551        0.6069220020
 N          1.6747737224       -1.8333800060       -0.7126418113
 N         -2.7594836938       -0.8323499983        0.9620219139
 C         -3.1614775023        0.4431192041        1.5355483912
 C         -3.1689675891        0.3372712181        3.0503876049
 C         -2.1661965545        1.5119290573        1.0559308395
 O         -1.2552532600        1.9463943007        1.7318028078
 N         -2.3974245859        1.9202624069       -0.2105130645
 O          0.0847752261        0.8033404677       -0.8510842390
 O          0.9591924221        2.8659028796       -0.6528784100
 C         -1.3874208554        2.7230501242       -0.8631135297
 C         -0.0481999299        1.9965409580       -0.7727860742
 C         -1.7501046473        2.9431795855       -2.3269814443
 H         -2.6749535662       -3.2445827740        0.0309086841
 H         -2.2873767432       -2.1511764309       -2.8062219550
 H         -3.7238513872       -2.9796119018       -2.2169796513
 H         -2.1978451236       -3.8672470407       -2.3651729573
 H          0.4949243479       -4.6741606043       -0.5576129543
 H         -0.2705317805       -2.2264167382       -1.3322071029
 H          1.6625144488       -1.9309892693        1.4414512181
 H          1.5108300716       -4.3507047960        1.5540981346
 H          2.9318205999       -3.8818045768        0.5870966049
 H          2.6782835901       -1.8860745983       -0.8427326112
 H          1.4008137680       -0.8555937562       -0.7130039652
 H         -2.1969236556       -1.4478820812        1.5509392486
 H         -4.1557311766        0.6938113939        1.1447952800
 H         -2.1588494242        0.1472415354        3.4053505040
 H         -3.8213984456       -0.4706547552        3.3706164110
 H         -3.5151031145        1.2709265198        3.4849796122
 H         -2.9817104829        1.3202126717       -0.7953469703
 H         -1.2872527139        3.6785091929       -0.3346461371
 H         -2.7108983863        3.4468260472       -2.3916738212
 H         -1.8195480061        1.9851926738       -2.8379104763
 H         -0.9968368745        3.5554205635       -2.8158868861
 C          2.2667165836        2.3897301210       -0.6266278765
 C          2.7173905946        1.4968684083        0.3494667171
 C          3.1235363006        2.8384793446       -1.6207139468
 C          4.0402068827        1.0537261107        0.2827121653
 C          4.8938531773        1.4989117525       -0.7052646393
 C          4.4360991487        2.4017902683       -1.6532680343
 H          2.7480421231        3.5281800478       -2.3607375227
 H          5.9140005414        1.1486820324       -0.7385301260
 H          5.0979591665        2.7603425212       -2.4266205292
 H          4.3721288669        0.3579523725        1.0394032614
 C          1.8716576948        1.0262358874        1.4661471927
 O          2.1679337301        0.0829272797        2.1578596775
 H          0.9520118078        1.6033003895        1.6482402016
