  56
        -94.14695813
 C         -1.6006602541       -1.3455172824       -2.2558905817
 C         -0.8357875033       -1.0391682164       -3.5313299765
 C         -2.1807394783       -0.0706095143       -1.6224693251
 O         -1.7888304456        1.0498218398       -1.8863756042
 O         -2.3045059118       -2.9343739474       -0.0432406663
 O         -0.3504186012       -1.8778419245        2.8089936893
 N         -0.7027198538       -1.9214316718       -1.2654235339
 C         -1.1311672023       -2.6326165700       -0.2123923391
 C         -0.0193618625       -3.1211641617        0.7127366847
 C         -0.4841341394       -3.1279225842        2.1893021775
 N          0.3645346898       -4.4361398981        0.2125054258
 N         -3.1320771728       -0.3393138419       -0.7067404822
 C         -3.5245263221        0.6572966911        0.2775404280
 C         -4.8624719219        0.2889193958        0.8944700220
 C         -2.3964152289        0.6410136584        1.3187460222
 O         -2.4226824155       -0.0926334535        2.2921621024
 N         -1.3620516390        1.4417765579        1.0195665706
 O          0.8373676814        0.0982222455        0.0292408635
 O          2.1622562786        1.5493499767        1.1038923785
 C         -0.1273129944        1.4463858476        1.7776548887
 C          0.9783062876        0.9576955203        0.8592263136
 C          0.1488839107        2.8284365179        2.3600144060
 H         -2.4053486397       -2.0675616054       -2.4323603431
 H         -0.1104737744       -0.2527658842       -3.3350604254
 H         -1.5213185270       -0.6881836605       -4.2976360678
 H         -0.3223037115       -1.9279828946       -3.8881288174
 H         -1.1480686909       -1.3429106140        2.6463002151
 H          0.2282277744       -1.5334494143       -1.2380173500
 H          0.8478398764       -2.4568549191        0.6294385788
 H          0.1633692775       -3.8161549291        2.7477193696
 H         -1.5149806594       -3.4987093135        2.2385869687
 H         -0.4470079341       -5.0467535359        0.2177739348
 H          1.0641847639       -4.8482007550        0.8219298779
 H         -3.2557807444       -1.3115644589       -0.4265153767
 H         -3.5630260003        1.6274843011       -0.2273194417
 H         -5.6112878993        0.1590902492        0.1180066881
 H         -5.1852965655        1.0710464547        1.5760920689
 H         -4.7591066940       -0.6370203392        1.4551672212
 H         -1.3342335666        1.9119426262        0.1214065941
 H         -0.2391190696        0.7060891267        2.5824461537
 H          0.2645079885        3.5498801181        1.5554069105
 H          1.0559192206        2.8112796183        2.9563361910
 H         -0.6848621701        3.1269614094        2.9898382739
 C          3.1352592755        1.4349112848        0.1314589755
 C          2.8847054470        1.8685907219       -1.1805926864
 C          4.3723489482        0.9179264908        0.4807617446
 C          3.9040880380        1.7424761878       -2.1258670723
 C          5.1347860306        1.2226678751       -1.7784132645
 C          5.3711596192        0.8194583276       -0.4722482993
 H          4.5348331447        0.5967684910        1.4976556901
 H          5.9125328824        1.1326351046       -2.5209143502
 H          6.3337940227        0.4172042343       -0.1959994602
 H          3.7171353798        2.0691313572       -3.1385292426
 C          1.6146959303        2.4971107472       -1.5704764843
 O          0.7083451855        2.7884752399       -0.8307844134
 H          1.5549189956        2.7222832507       -2.6514971799
