  56
        -94.15638433
 C         -0.8920206853       -0.9517968325       -2.7029625303
 C          0.4237110941       -1.0180821731       -3.4740849529
 C         -1.0553515451        0.4240574291       -2.0313153257
 O         -0.2913333653        1.3435006282       -2.2385916812
 O         -0.0168932881       -0.8219780273       -0.0109432312
 O         -2.2730785968       -2.8204197825        1.7527983396
 N         -0.9670491445       -1.9927638391       -1.6950120267
 C         -0.4207254514       -1.8761044965       -0.4724478335
 C         -0.3608804032       -3.1962470872        0.2961428868
 C         -0.8846678475       -3.0177964857        1.7410079506
 N         -1.0998649026       -4.2278501153       -0.4252697358
 N         -2.1959036311        0.5270447608       -1.3164067479
 C         -2.3928009432        1.5681652607       -0.3233515725
 C         -3.8492032327        2.0159695476       -0.3027978201
 C         -2.0028447002        0.9305570745        1.0195358273
 O         -2.5828303509       -0.0715465220        1.4130831223
 N         -1.0239922807        1.5524761275        1.6827732632
 O          1.4851207584       -0.7312120721        2.5669044310
 O          1.4611621404        1.1206214401        1.2527748743
 C         -0.2959140849        0.9126504595        2.7584735900
 C          0.9851049467        0.2900998785        2.1841667321
 C          0.0736381345        1.9292992736        3.8364614408
 H         -1.7377209755       -1.0916276498       -3.3881544095
 H          0.4586742752       -0.2156326388       -4.2047511203
 H          0.5193753489       -1.9754779681       -3.9807306392
 H          1.2543217239       -0.8891458122       -2.7842039364
 H         -2.4631222125       -1.8730399204        1.6389884042
 H         -1.1609411740       -2.9479455078       -1.9778032762
 H          0.7002874711       -3.4663697661        0.3446765204
 H         -0.3388735956       -2.2053341790        2.2255991601
 H         -0.6975551660       -3.9455690682        2.2936669238
 H         -2.0791738471       -4.1330114698       -0.1567589943
 H         -0.8036564883       -5.1458407273       -0.1104125560
 H         -2.6990782896       -0.3258040255       -1.1073823334
 H         -1.7237010207        2.3932449004       -0.5767544597
 H         -4.1570720381        2.3393043845       -1.2936866895
 H         -3.9707670818        2.8410243742        0.3935731488
 H         -4.4825233283        1.1917899798        0.0186991754
 H         -0.4969058548        2.2729829592        1.1898383987
 H         -0.9194338653        0.1139183642        3.1719821278
 H          0.6468024975        1.4460863770        4.6232533142
 H         -0.8289139861        2.3560600260        4.2659099208
 H          0.6686354358        2.7280873877        3.3999524608
 C          2.2813685990        0.7792464969        0.2163507304
 C          2.2113319457        1.6276666377       -0.9056497938
 C          3.1270241660       -0.3207129117        0.2156056968
 C          3.0102088725        1.3362454270       -2.0101529638
 C          3.8496356356        0.2400835903       -2.0114019109
 C          3.9017660611       -0.5873714915       -0.8996460934
 H          3.1581369181       -0.9690100815        1.0759431426
 H          4.4579922529        0.0231079345       -2.8764982332
 H          4.5520501199       -1.4496673718       -0.8982293985
 H          2.9488987973        1.9762970759       -2.8775169196
 C          1.3041279563        2.7788076203       -0.9713089655
 O          0.5723682830        3.1859545891       -0.0978689252
 H          1.3723310156        3.3175694751       -1.9318242666
