  56
        -94.14694062
 C         -2.4209307340        1.0811504222       -1.7656425856
 C         -2.8372665881        0.5525964788       -3.1291961717
 C         -0.8830347842        1.1925681779       -1.7028728157
 O         -0.1575555089        0.2950665107       -2.0737588920
 O         -1.9719614767        1.2675873035        1.0146308511
 O         -3.5569661851        0.7989557165        3.2404936669
 N         -2.8622060335        0.1583250674       -0.7391170115
 C         -2.5729354687        0.2952064133        0.5501278727
 C         -3.1142734768       -0.8063307462        1.4543063309
 C         -4.1479911978       -0.1364712354        2.3883569167
 N         -3.7375000474       -1.8535197454        0.6683287067
 N         -0.4329232083        2.3708271094       -1.2297640034
 C          0.9803128324        2.6560496440       -1.1023538999
 C          1.2008028061        4.1580989391       -0.9610452385
 C          1.6451348823        1.9394140177        0.0783194432
 O          2.8191875982        1.6248771185        0.0454299880
 N          0.8743471753        1.7355391023        1.1614813616
 O          3.3195374359       -0.5758900970        2.0933741918
 O          1.5210737206       -0.7520705073        0.7193701251
 C          1.4518780611        0.9852936477        2.2652356956
 C          2.2720741880       -0.1744821152        1.6821340368
 C          2.3259394628        1.8647722270        3.1521679700
 H         -2.8687449003        2.0653752900       -1.5716554850
 H         -2.3174469427       -0.3832869709       -3.3215133749
 H         -2.5665688397        1.2644780755       -3.9044457282
 H         -3.9113030882        0.3863136477       -3.1610953464
 H         -2.9469343622        1.3364863283        2.7069407020
 H         -3.3379061198       -0.6928759931       -1.0116928020
 H         -2.2811661561       -1.1521076448        2.0942995043
 H         -4.6123211541       -0.8944278746        3.0260706830
 H         -4.9339132971        0.3239099442        1.7692325603
 H         -4.2555174022       -2.4848122426        1.2684254886
 H         -3.0349256676       -2.4019172620        0.1749376771
 H         -1.0756914456        3.0023416267       -0.7766420372
 H          1.4766050590        2.2784338794       -2.0040287226
 H          2.2652306913        4.3636337635       -0.8917592663
 H          0.7163910558        4.5268873141       -0.0586859589
 H          0.7970649628        4.6835768815       -1.8234292158
 H         -0.1352167546        1.8044725685        1.1051248613
 H          0.6295123301        0.5528466856        2.8447559755
 H          1.7311640800        2.6567270035        3.5989242092
 H          3.1214895267        2.3002203205        2.5541578476
 H          2.7738124104        1.2601020521        3.9349466431
 C          1.9767010058       -1.6441138777       -0.2176767280
 C          0.9820274409       -2.3481695440       -0.9226520975
 C          3.3141612134       -1.8267780299       -0.5300718061
 C          1.3612302391       -3.2372157760       -1.9282563607
 C          2.6938993993       -3.4242536366       -2.2303458532
 C          3.6623881424       -2.7154945823       -1.5335912737
 H          4.0692678411       -1.2678658508       -0.0021897063
 H          2.9831822883       -4.1121308382       -3.0102346481
 H          4.7059670505       -2.8497433308       -1.7759195744
 H          0.5825150373       -3.7631670420       -2.4597311897
 C         -0.4200604040       -2.1297606086       -0.6015414038
 O         -1.3712314116       -2.6982020427       -1.0914181351
 H         -0.5705083944       -1.3755755297        0.1903169020
