  56
        -94.14693392
 C         -2.4250829034        1.0935701344       -1.7695071098
 C         -2.8369020907        0.5804958440       -3.1403574425
 C         -0.8876982066        1.2099376920       -1.7027948302
 O         -0.1586674292        0.3161976733       -2.0757655747
 O         -1.9809281665        1.2487709890        1.0126117574
 O         -3.5676196921        0.7464902673        3.2305386925
 N         -2.8640766765        0.1563751371       -0.7551408294
 C         -2.5770626812        0.2792993566        0.5360628245
 C         -3.1146027779       -0.8354271870        1.4262781651
 C         -4.1528610011       -0.1818064542        2.3666612031
 N         -3.7312813983       -1.8760643099        0.6264455263
 N         -0.4422823286        2.3876034500       -1.2238161021
 C          0.9697203314        2.6772516638       -1.0923975118
 C          1.1845585404        4.1795749234       -0.9450883122
 C          1.6348135501        1.9588948822        0.0873603914
 O          2.8117838770        1.6554836345        0.0587921549
 N          0.8594507370        1.7418820785        1.1647704753
 O          3.3074759848       -0.5657875204        2.1060549944
 O          1.5244314808       -0.7385033394        0.7122089343
 C          1.4352170512        0.9898934157        2.2679568598
 C          2.2630156010       -0.1650424339        1.6864042642
 C          2.3012964051        1.8696474120        3.1625704238
 H         -2.8773104744        2.0734463699       -1.5640596521
 H         -2.3111669712       -0.3495750675       -3.3445075030
 H         -2.5700015538        1.3042307994       -3.9059176153
 H         -3.9098671863        0.4080155115       -3.1755047146
 H         -2.9591411132        1.2929584665        2.7043530320
 H         -3.3365087396       -0.6933092081       -1.0379118919
 H         -2.2809042463       -1.1849715342        2.0634018225
 H         -4.6141784348       -0.9495440260        2.9948221789
 H         -4.9402953758        0.2819079477        1.7519603895
 H         -4.2488252586       -2.5159931070        1.2177628271
 H         -3.0243738156       -2.4163333767        0.1300450930
 H         -1.0881461155        3.0169423439       -0.7721482678
 H          1.4693637080        2.3048773504       -1.9944005251
 H          0.6951922194        4.5435943109       -0.0434416076
 H          0.7826979000        4.7068193806       -1.8072812903
 H          2.2480007819        4.3883594439       -0.8705711773
 H         -0.1503096626        1.8024122999        1.1024898004
 H          0.6118796361        0.5520993237        2.8421426560
 H          2.7495985551        1.2633780217        3.9438711880
 H          1.7006039726        2.6560808875        3.6111459406
 H          3.0965870889        2.3124311947        2.5696248469
 C          1.9892070653       -1.6390255958       -0.2122959832
 C          1.0017779126       -2.3499873037       -0.9204717801
 C          3.3298553355       -1.8261137273       -0.5082163961
 C          1.3912525817       -3.2510368158       -1.9114162683
 C          2.7270223770       -3.4431257610       -2.1962547511
 C          3.6883885134       -2.7269293931       -1.4972763993
 H          4.0797874393       -1.2623993609        0.0219011749
 H          3.0242358936       -4.1409968029       -2.9641883047
 H          4.7344811689       -2.8653385827       -1.7259577537
 H          0.6179389561       -3.7825927298       -2.4452274058
 C         -0.4037675574       -2.1287841105       -0.6161848266
 O         -1.3487943821       -2.7051153263       -1.1087018735
 H         -0.5631156706       -1.3649588256        0.1643547275
