  56
        -94.14692941
 C          2.6277371877       -0.8798743294       -0.3884934823
 C          4.0019528816       -1.1756876455       -0.9896757032
 C          1.6600666054       -2.0049448734       -0.7665022508
 O          1.2849761504       -2.1452891541       -1.9219960646
 O          1.9153796823        1.4757446676        1.0387908645
 O          1.4951440084        4.8014263460       -1.6176073622
 N          2.0927858203        0.3532294149       -0.9166540302
 C          1.7349964506        1.3975044614       -0.1683907953
 C          1.1056208450        2.5391434740       -0.9675107611
 C          2.1328818789        3.6720331309       -1.0612484015
 N          0.7405196353        2.0940385784       -2.3017075316
 N          1.3001224215       -2.8193565277        0.2342690073
 C          0.3376367197       -3.8953000670        0.0545891627
 C          0.5480357375       -4.9593706255        1.1188532804
 C         -1.0881478227       -3.3116161601        0.1342422525
 O         -1.8731971613       -3.5748227329        1.0153027983
 N         -1.3527580310       -2.4832219330       -0.8980107614
 O         -1.7705446500        0.5877745534       -1.4771884489
 O         -2.0360211046       -0.0053187711        0.6730575031
 C         -2.5354868133       -1.6500432175       -0.9375467840
 C         -2.0859011157       -0.2191934532       -0.6403248580
 C         -3.2170302163       -1.7312628908       -2.2971340575
 H          2.6927950362       -0.7619728229        0.6966186634
 H          4.4113380410       -2.0841823959       -0.5557290913
 H          4.6803737236       -0.3499921009       -0.7915198616
 H          3.9071918722       -1.3109266868       -2.0645379663
 H          2.1336129558        5.5180540797       -1.6857067441
 H          1.8475914933        0.3932234151       -1.9011562040
 H          0.2547037332        2.9231288438       -0.3801818104
 H          2.9654333504        3.3435639791       -1.6982252670
 H          2.5119195430        3.8897693078       -0.0547206874
 H          0.5728033958        2.9113385076       -2.8795240488
 H         -0.1315091457        1.5725086415       -2.2615134591
 H          1.4069914369       -2.4926982914        1.1850355522
 H          0.4947496609       -4.3024245354       -0.9510377005
 H          0.3301763036       -4.5423327620        2.0988625692
 H          1.5717483370       -5.3239222942        1.0966314150
 H         -0.1319114448       -5.7885517782        0.9469183619
 H         -0.6284266310       -2.3026784050       -1.5864891982
 H         -3.1858851206       -1.9963778619       -0.1270449059
 H         -2.5564477491       -1.3324430976       -3.0633023067
 H         -4.1355198069       -1.1506195430       -2.2936044163
 H         -3.4519905359       -2.7660319791       -2.5293636972
 C         -1.7074327725        1.2498865720        1.1622553099
 C         -0.6520602671        1.3833430071        2.0730269972
 C         -2.4709143457        2.3505849585        0.8012897734
 C         -0.4067657418        2.6412024953        2.6238974955
 C         -1.1640658338        3.7372161400        2.2624443220
 C         -2.1933581884        3.5923883427        1.3448709256
 H         -3.2753466301        2.2268791274        0.0922626718
 H         -0.9520919448        4.7062606763        2.6873655390
 H         -2.7842314438        4.4462183034        1.0504326926
 H          0.4129586186        2.7469962681        3.3173938192
 C          0.2502898435        0.2727209341        2.4094487241
 O          0.2698499151       -0.8160205718        1.8882481171
 H          0.9406046386        0.5174631798        3.2355812286
