  56
        -94.14692858
 C          2.6260841578       -0.8871886378       -0.3886013557
 C          3.9993883969       -1.1891604091       -0.9888763796
 C          1.6545384693       -2.0092427523       -0.7655446011
 O          1.2758341313       -2.1471435205       -1.9200845653
 O          1.9196429847        1.4713189548        1.0361383312
 O          1.4985666526        4.7986997459       -1.6152911231
 N          2.0960540738        0.3472477040       -0.9184216804
 C          1.7394569903        1.3925571622       -0.1710905087
 C          1.1115274624        2.5344631358       -0.9708486961
 C          2.1370632957        3.6692232795       -1.0598969445
 N          0.7505323095        2.0904939019       -2.3065345019
 N          1.2960581471       -2.8249824828        0.2347974112
 C          0.3312232134       -3.8987770511        0.0548557285
 C          0.5433603119       -4.9671546026        1.1144482268
 C         -1.0931800355       -3.3125658766        0.1410194079
 O         -1.8746675243       -3.5746201082        1.0255801110
 N         -1.3606409980       -2.4835063812       -0.8899286110
 O         -1.7560495992        0.5803951119       -1.4730662743
 O         -2.0498842308        0.0058796572        0.6783722837
 C         -2.5419037856       -1.6479763807       -0.9249288545
 C         -2.0863229339       -0.2178505048       -0.6336428122
 C         -3.2302760564       -1.7305031874       -2.2810588137
 H          2.6911260181       -0.7681999333        0.6964130700
 H          4.6809011283       -0.3657708114       -0.7917115480
 H          3.9045176556       -1.3255182196       -2.0635921637
 H          4.4051826329       -2.0985975021       -0.5535081295
 H          2.1351987315        5.5174353864       -1.6779983560
 H          1.8511996236        0.3869922502       -1.9030056170
 H          0.2583861125        2.9165087624       -0.3855145773
 H          2.9715267372        3.3434657680       -1.6957361255
 H          2.5134999054        3.8854508489       -0.0520578743
 H          0.5816514302        2.9082595351       -2.8833497631
 H         -0.1200703886        1.5664310225       -2.2684886284
 H          1.4062032913       -2.5006157360        1.1858866055
 H          0.4844842775       -4.3025744508       -0.9526990690
 H          0.3270425053       -4.5543613159        2.0965853060
 H          1.5670537433       -5.3315916765        1.0889873101
 H         -0.1367469595       -5.7956977455        0.9400640124
 H         -0.6382753157       -2.3033352725       -1.5805906671
 H         -3.1889903606       -1.9907882837       -0.1103959041
 H         -2.5720309886       -1.3354616500       -3.0512022493
 H         -4.1471744386       -1.1473462184       -2.2746014328
 H         -3.4691874084       -2.7651955560       -2.5096122687
 C         -1.7102245870        1.2610227834        1.1608877363
 C         -0.6505627130        1.3907392910        2.0670439489
 C         -2.4668475863        2.3654397828        0.7972043310
 C         -0.3948417433        2.6489068393        2.6123704404
 C         -1.1457046655        3.7486829670        2.2487265464
 C         -2.1786054685        3.6075659883        1.3346200311
 H         -3.2741032656        2.2442106624        0.0909361042
 H         -0.9256764083        4.7178897581        2.6691771986
 H         -2.7639591797        4.4644988250        1.0381785242
 H          0.4280560022        2.7518241478        3.3025078348
 C          0.2462983002        0.2752423724        2.4026706806
 O          0.2613289758       -0.8124665534        1.8791902455
 H          0.9370073098        0.5153031994        3.2298328415
