  56
        -94.15238522
 C         -3.8887637322        1.4836736091       -0.2126270890
 C         -4.5762046908        2.0180613285       -1.4575059742
 C         -2.7162050753        2.3825814133        0.2111680395
 O         -2.2464690519        3.2528975839       -0.5064178509
 O         -3.2480000978       -0.4685883416        1.6940295471
 O         -1.7618719339       -1.2488087433       -2.1255335621
 N         -3.3686433404        0.1493433785       -0.4703284358
 C         -3.0879013067       -0.7252127414        0.5038816532
 C         -2.5065605214       -2.0843646770        0.0902391757
 C         -2.3602252855       -2.3133568323       -1.4211724354
 N         -1.2237189407       -2.3009816549        0.7483944896
 N         -2.2485932015        2.0830065303        1.4306267089
 C         -1.0325647982        2.6640541898        1.9753662720
 C         -0.9455931701        2.3752076853        3.4636845786
 C          0.1489428469        2.0482353768        1.2136411060
 O          0.8262151954        1.1256040890        1.6367503707
 N          0.3590642765        2.5841750148        0.0040371090
 O          0.5115439111       -0.2637690699       -0.7163581948
 O          2.6862918784        0.1138878386       -0.2834489409
 C          1.3655579284        1.9909238248       -0.8574816545
 C          1.4395340804        0.4949365211       -0.5507636473
 C          0.9927869014        2.1937050499       -2.3209810499
 H         -4.5913866088        1.4068774651        0.6261181654
 H         -3.8509093329        2.1315287617       -2.2597180462
 H         -5.0074957543        2.9930820387       -1.2494706196
 H         -5.3631636057        1.3395296176       -1.7755645302
 H         -0.9029935999       -1.0502138523       -1.7196240281
 H         -3.0269761320       -0.0483312977       -1.4069846499
 H         -3.1927196623       -2.8492332719        0.4800517436
 H         -3.3462404042       -2.4521771431       -1.8733868635
 H         -1.7789336746       -3.2339543637       -1.5547827254
 H         -1.3293533292       -2.1343935284        1.7442202430
 H         -0.5347447637       -1.6390331297        0.4005991112
 H         -2.6186932038        1.2491841111        1.8921325714
 H         -1.0532552605        3.7425166760        1.7772047141
 H         -1.8248995572        2.7592326365        3.9736579166
 H         -0.0575369459        2.8416742261        3.8810172533
 H         -0.8775687821        1.3019036763        3.6241648579
 H         -0.3595511169        3.1804088322       -0.4049405305
 H          2.3458854612        2.4318706695       -0.6336268309
 H          1.7625646468        1.7811545823       -2.9680355290
 H          0.8889185357        3.2551476073       -2.5309044260
 H          0.0497931290        1.6951124080       -2.5346578211
 C          2.9097829994       -1.2080222338        0.0912800922
 C          3.8337333218       -1.9751852819       -0.6278359581
 C          2.2447898099       -1.7388619442        1.1836274933
 C          4.0650823101       -3.2914913064       -0.2233087615
 C          3.3921631657       -3.8275357686        0.8556574985
 C          2.4845074092       -3.0496238049        1.5595365039
 H          1.5584471892       -1.1116487710        1.7306293463
 H          3.5734851171       -4.8490186368        1.1528875119
 H          1.9575513238       -3.4622404840        2.4057183180
 H          4.7811354920       -3.8713075901       -0.7863078078
 C          4.5469039485       -1.4271804204       -1.7879272379
 O          5.3353691888       -2.0357995529       -2.4649479944
 H          4.3000803050       -0.3710598176       -2.0071088950
