  56
        -94.15236270
 C         -3.4297757082        0.4156736010       -1.3813229317
 C         -3.9301188116       -0.3257974514       -2.6089011977
 C         -2.3829932005        1.4789365941       -1.7565139329
 O         -1.8854005171        1.5706325237       -2.8675185655
 O         -3.0477543902        0.7770382296        1.3749903672
 O         -1.2896263357       -2.7599300097       -0.2432950419
 N         -2.8187112249       -0.5221665096       -0.4526011160
 C         -2.6674524303       -0.2674342874        0.8518475934
 C         -1.8782707933       -1.2901861478        1.6745855115
 C         -1.7643670908       -2.7013825648        1.0808408508
 N         -0.5376517905       -0.7582107553        1.9152227123
 N         -2.0687939406        2.2787860875       -0.7265203692
 C         -0.9421290520        3.1982966563       -0.7635926987
 C         -0.9576893234        4.0852592661        0.4684746999
 C          0.3151275527        2.3221814989       -0.8127161157
 O          0.8941629882        1.9124081196        0.1784887389
 N          0.7053540731        1.9852977775       -2.0577630225
 O          0.4507450604       -0.6351698890       -0.9718172250
 O          2.6121079654       -0.3646531224       -0.4228069739
 C          1.7559120603        0.9893290635       -2.1779594417
 C          1.5130774022       -0.0751793709       -1.1123329202
 C          1.7222888129        0.3499766618       -3.5595927008
 H         -4.2539599499        0.9148423161       -0.8558341574
 H         -3.0913960769       -0.7809480301       -3.1301523366
 H         -4.4146949945        0.3707367886       -3.2872133448
 H         -4.6386713578       -1.0982896650       -2.3221799521
 H         -0.4863830022       -2.2200473433       -0.3122121848
 H         -2.3916147119       -1.3608987247       -0.8378842788
 H         -2.3697969887       -1.3794962791        2.6502991819
 H         -2.7484145034       -3.1780345281        1.0667258462
 H         -1.1010434969       -3.2746375673        1.7426585604
 H         -0.5941670731        0.0822738054        2.4798056094
 H         -0.1087970560       -0.4876249719        1.0347469206
 H         -2.4606330981        2.0548297824        0.1903907413
 H         -1.0067348361        3.7880237915       -1.6855904428
 H         -1.9103861185        4.6018233717        0.5483026710
 H         -0.1577678767        4.8182872761        0.4092738549
 H         -0.8029223273        3.4771247421        1.3566862286
 H          0.0037625796        2.0301047208       -2.7950027125
 H          2.7266727385        1.4592616351       -1.9789673341
 H          0.7605729416       -0.1344304807       -3.7152108131
 H          2.5137498615       -0.3892084250       -3.6542560748
 H          1.8621420667        1.1135179328       -4.3202840757
 C          2.5116678117       -1.3276925657        0.5837940314
 C          2.7694761767       -0.9582020175        1.9070528699
 C          2.1735922110       -2.6328440934        0.2667039527
 C          2.6882879147       -1.9343420041        2.8989029692
 C          2.3414761946       -3.2339136752        2.5880077125
 C          2.0833833576       -3.5819271540        1.2719538409
 H          1.9795169394       -2.9024790355       -0.7608939178
 H          2.2686236341       -3.9767017939        3.3674542304
 H          1.8080928609       -4.5945197181        1.0190005861
 H          2.8910606767       -1.6341160191        3.9157264220
 C          3.0871520334        0.4346167544        2.2719654918
 O          3.4416447091        0.7793109752        3.3700596835
 H          2.9606734232        1.1586588921        1.4509389857
