  56
        -94.15235606
 C         -3.4383978788        0.4321958200       -1.3857158827
 C         -3.9521714771       -0.3013804636       -2.6124824786
 C         -2.3812243712        1.4843496837       -1.7626928042
 O         -1.8831839794        1.5696738628       -2.8740626737
 O         -3.0446876799        0.7856527196        1.3687020486
 O         -1.3169087418       -2.7599456165       -0.2595562407
 N         -2.8339276436       -0.5137123470       -0.4608971759
 C         -2.6766982099       -0.2621769565        0.8435255784
 C         -1.9001346258       -1.2962234459        1.6644362206
 C         -1.7959722769       -2.7049886513        1.0632263043
 N         -0.5563216471       -0.7780630819        1.9162287457
 N         -2.0586488228        2.2821233225       -0.7337529753
 C         -0.9249285472        3.1928025208       -0.7726803565
 C         -0.9332150334        4.0813615397        0.4583138202
 C          0.3260492465        2.3077208671       -0.8214682871
 O          0.9051083919        1.8982101526        0.1698463856
 N          0.7107094299        1.9632050599       -2.0659881955
 O          0.4504240886       -0.6509725148       -0.9614973458
 O          2.6137045024       -0.3785632384       -0.4196955613
 C          1.7548885205        0.9603260613       -2.1852789820
 C          1.5132472168       -0.0935253711       -1.1086914177
 C          1.7072607788        0.3094400766       -3.5610922366
 H         -4.2547270308        0.9392776477       -0.8555621365
 H         -4.6629911501       -1.0709111205       -2.3234036359
 H         -3.1200952515       -0.7591623704       -3.1419944726
 H         -4.4379968519        0.4006416563       -3.2842057484
 H         -0.5099117043       -2.2250683804       -0.3229526834
 H         -2.4134745739       -1.3545774447       -0.8489835731
 H         -2.3978905462       -1.3867545950        2.6369645524
 H         -2.7841058813       -3.1728908169        1.0426026082
 H         -1.1403230034       -3.2879998405        1.7241439613
 H         -0.6095518164        0.0633372378        2.4798092274
 H         -0.1170921183       -0.5126441512        1.0392584001
 H         -2.4509123887        2.0619900895        0.1838613006
 H         -0.9855922638        3.7819073970       -1.6953577043
 H         -1.8812162738        4.6066873251        0.5368730148
 H         -0.1265922019        4.8069621068        0.3987933232
 H         -0.7845281312        3.4729056496        1.3473363756
 H          0.0080664731        2.0112210660       -2.8020737827
 H          2.7297583001        1.4263643934       -1.9974638726
 H          1.8449280569        1.0657077562       -4.3294041436
 H          0.7419165319       -0.1713577075       -3.7049695464
 H          2.4941530321       -0.4346145604       -3.6556210097
 C          2.5137700461       -1.3272371782        0.6003432117
 C          2.7848267377       -0.9407882738        1.9161412817
 C          2.1637736668       -2.6342716645        0.3047260437
 C          2.7035080270       -1.9016955535        2.9227408956
 C          2.3442339983       -3.2028194291        2.6333664694
 C          2.0739549649       -3.5678224408        1.3244148950
 H          1.9602014230       -2.9175743716       -0.7173215024
 H          2.2716030749       -3.9336421699        3.4240336497
 H          1.7895458779       -4.5819737323        1.0883394985
 H          2.9169884091       -1.5885370955        3.9334798862
 C          3.1175879859        0.4543165943        2.2579368540
 O          3.4842262933        0.8120341180        3.3478638998
 H          2.9908564460        1.1672081855        1.4272661808
