  56
        -94.15637793
 C          0.8710650411       -2.7788000633        0.1965686663
 C          1.0125832092       -4.2860589429        0.0367403659
 C         -0.5385187879       -2.3384161489       -0.2151862788
 O         -0.8307799822       -2.1689470561       -1.3956894086
 O          0.8612910708       -0.1001450668       -0.1815066451
 O          1.1560438698       -1.7861823886       -3.4458369996
 N          1.8114390233       -2.0841660342       -0.6639387503
 C          1.6252838478       -0.7623124588       -0.8686627182
 C          2.4021489336       -0.1842918215       -2.0435696992
 C          1.5299047341       -0.4435459479       -3.3004665828
 N          2.6842408344        1.2298803785       -1.9408962941
 N         -1.4125479258       -2.2062608495        0.7830537211
 C         -2.7981937723       -1.8202049656        0.5733714783
 C         -3.6524782909       -2.3331552915        1.7212159979
 C         -2.9209137882       -0.2840114000        0.4468426154
 O         -3.5006916381        0.3989882287        1.2630130345
 N         -2.3447077596        0.1975116143       -0.6698390507
 O         -0.0627304832        2.4592732820       -1.4506752838
 O         -0.6988884876        2.1078488996        0.6883108678
 C         -2.2859002443        1.6160786323       -0.9626155947
 C         -0.8769429013        2.1221911454       -0.6360621856
 C         -2.6389325753        1.8833852582       -2.4184803022
 H          1.0581297520       -2.4751128147        1.2329446160
 H          0.7873041288       -4.5752929333       -0.9882119232
 H          0.3242725498       -4.7984605171        0.7036678616
 H          2.0271892192       -4.5926896170        0.2789747546
 H          0.4159902509       -1.9831642944       -2.8412986243
 H          2.2519968234       -2.6178793509       -1.3999828042
 H          3.3500254634       -0.7254165391       -2.1490939001
 H          2.1132464152       -0.1749178419       -4.1837246428
 H          0.6561959045        0.2173206703       -3.2469154628
 H          3.2004915649        1.4184429963       -1.0871894762
 H          1.8118785209        1.7504735817       -1.8812884639
 H         -1.0725946896       -2.1970047713        1.7360451004
 H         -3.1126500496       -2.2620780069       -0.3801279873
 H         -4.6937219327       -2.0816037554        1.5427281236
 H         -3.3466097946       -1.8582386468        2.6503852818
 H         -3.5557127743       -3.4116854609        1.8158740281
 H         -1.8138605134       -0.4308511079       -1.2628213612
 H         -2.9919264566        2.0979895622       -0.2752751832
 H         -1.9138616891        1.4035819431       -3.0715531174
 H         -2.6217515776        2.9514043315       -2.6157219873
 H         -3.6294941678        1.4951611109       -2.6384960450
 C          0.5615247686        2.2425151799        1.2394091496
 C          0.9690560858        1.2528907307        2.1482312698
 C          1.4111426391        3.2842875855        0.9099123626
 C          2.2416897159        1.3303142914        2.7072716559
 C          3.0849219643        2.3772298293        2.3872016780
 C          2.6686240212        3.3490500841        1.4907903625
 H          1.0979733749        4.0303828993        0.1968146189
 H          4.0693883905        2.4333842451        2.8265034361
 H          3.3290749666        4.1622495084        1.2299263606
 H          2.5476495510        0.5534486051        3.3920717420
 C          0.0792736628        0.1214074391        2.4077533923
 O          0.4113616679       -0.9539949352        2.8553066854
 H         -0.9716658442        0.3219281487        2.1455123713
