  56
        -94.15234514
 C         -3.4425474556        0.4451946123       -1.3865935473
 C         -3.9638920620       -0.2800552400       -2.6151584445
 C         -2.3793323268        1.4918423572       -1.7618688050
 O         -1.8835314321        1.5782240173       -2.8741896773
 O         -3.0393950663        0.7848504240        1.3684853869
 O         -1.3358564157       -2.7620930799       -0.2790831805
 N         -2.8429187769       -0.5086581013       -0.4668259088
 C         -2.6812741173       -0.2638586882        0.8383638484
 C         -1.9129355374       -1.3082401051        1.6540394669
 C         -1.8166114690       -2.7134525439        1.0433809933
 N         -0.5664441343       -0.8007820296        1.9129099222
 N         -2.0488683194        2.2834320750       -0.7307417092
 C         -0.9108601795        3.1886883140       -0.7705025453
 C         -0.9117695914        4.0749754675        0.4621661489
 C          0.3358477160        2.2979976077       -0.8236289752
 O          0.9167705819        1.8866303405        0.1659224376
 N          0.7147777897        1.9506161671       -2.0689796881
 O          0.4513685557       -0.6610919598       -0.9579671846
 O          2.6161940158       -0.3891681015       -0.4210294185
 C          1.7554068643        0.9441327622       -2.1900512467
 C          1.5146318631       -0.1052877606       -1.1088058195
 C          1.7006657102        0.2895626693       -3.5637799109
 H         -4.2544449774        0.9557030101       -0.8529549631
 H         -3.1364469135       -0.7434104698       -3.1470828174
 H         -4.4442759573        0.4283039878       -3.2841323126
 H         -4.6811095710       -1.0442800392       -2.3277966657
 H         -0.5255185497       -2.2317828975       -0.3373338139
 H         -2.4290332936       -1.3506975138       -0.8593718209
 H         -2.4136817866       -1.4020531844        2.6247527572
 H         -2.8075464528       -3.1751815293        1.0180400460
 H         -1.1655972331       -3.3049552892        1.7012681916
 H         -0.6160718282        0.0389256503        2.4793468937
 H         -0.1218428616       -0.5355381925        1.0385407607
 H         -2.4395729781        2.0620706313        0.1872573590
 H         -0.9709719511        3.7796111412       -1.6920483153
 H         -0.7623917081        3.4642554547        1.3495233023
 H         -1.8574582729        4.6037961906        0.5449140870
 H         -0.1025358698        4.7975572181        0.4013764209
 H          0.0108963645        2.0021924576       -2.8036980045
 H          2.7324046656        1.4077870393       -2.0073035559
 H          1.8384214639        1.0430763899       -4.3347786591
 H          0.7332634738       -0.1883881142       -3.7030978348
 H          2.4846319414       -0.4575200134       -3.6587470871
 C          2.5144799316       -1.3268219875        0.6089261669
 C          2.7910300692       -0.9275899560        1.9198218633
 C          2.1557459953       -2.6348102032        0.3285970247
 C          2.7046083241       -1.8765029784        2.9373349681
 C          2.3357337761       -3.1782331007        2.6632786795
 C          2.0613974990       -3.5561917684        1.3588848214
 H          1.9488367102       -2.9282260213       -0.6899143178
 H          2.2585807156       -3.8993066268        3.4624037783
 H          1.7700956797       -4.5710995558        1.1346932467
 H          2.9217077429       -1.5533109585        3.9441497162
 C          3.1356780080        0.4684935286        2.2452552511
 O          3.5037941991        0.8361631916        3.3314023375
 H          3.0169356363        1.1723236495        1.4057887626
