  56
        -94.15229809
 C         -0.9016793755       -2.1241182522       -2.4020777832
 C         -0.7109315752       -1.5717452075       -3.8035969889
 C         -2.1563852882       -1.5472838601       -1.7326867716
 O         -2.7159745850       -0.5339449959       -2.1115760675
 O         -0.0440183717       -3.4135689437       -0.0636322642
 O          0.7235726957       -0.5775978286        2.2128561165
 N          0.2247192266       -1.7408454432       -1.5582230441
 C          0.5228889641       -2.3851993089       -0.4140872486
 C          1.7242747463       -1.8333482778        0.3506679083
 C          1.4272325323       -1.7389226675        1.8614260420
 N          2.8724313108       -2.7139089355        0.1644528963
 N         -2.5310445727       -2.2420924045       -0.6429192248
 C         -3.4389543232       -1.6640313277        0.3365970184
 C         -3.9754285505       -2.7460775996        1.2566157353
 C         -2.6021744275       -0.6295221720        1.1047769745
 O         -2.0247898400       -0.9013534768        2.1448904080
 N         -2.5251569258        0.5682529047        0.5014028744
 O          0.0191948992        0.8750846082       -0.5588622792
 O          0.6021798304        2.2000742076        1.1579470983
 C         -1.6721289005        1.6223875023        1.0050037219
 C         -0.2670392248        1.5081566151        0.4241938266
 C         -2.2529593197        2.9890855598        0.6509578979
 H         -0.9526743227       -3.2184264560       -2.4021831870
 H         -0.7436390316       -0.4853059599       -3.7711442832
 H         -1.5141674121       -1.9182807843       -4.4477320729
 H          0.2419017386       -1.8952184030       -4.2144018650
 H         -0.2333265578       -0.7591871517        2.2521212304
 H          0.5223336942       -0.7790401236       -1.6533855969
 H          1.9904464573       -0.8383429946       -0.0203226645
 H          2.3950223636       -1.6997002384        2.3730842710
 H          0.8986316298       -2.6451395335        2.1752999308
 H          3.0835087077       -2.8080288333       -0.8241251268
 H          2.6394246857       -3.6384521751        0.5156488985
 H         -1.9080303145       -2.9729926180       -0.3040060671
 H         -4.2443639163       -1.1620538616       -0.2094530402
 H         -3.1583878058       -3.1674510802        1.8374995074
 H         -4.4487303715       -3.5328726916        0.6756674216
 H         -4.7023473286       -2.3216915429        1.9435071815
 H         -2.8314109944        0.6423208057       -0.4646586065
 H         -1.5946766245        1.5005084030        2.0909889385
 H         -1.6277224626        3.7742041089        1.0646262638
 H         -3.2583652402        3.0781167401        1.0542886764
 H         -2.2856719175        3.1111788639       -0.4288946112
 C          1.9320206209        2.1929217231        0.7707796529
 C          2.3442880200        2.7524173513       -0.4464883161
 C          2.8475635760        1.5989597841        1.6253514181
 C          3.6989562438        2.6817504329       -0.7811506314
 C          4.6115614896        2.0935010080        0.0702770761
 C          4.1853921456        1.5554027151        1.2765136144
 H          2.4813008966        1.1565926472        2.5372857144
 H          5.6542693951        2.0479426962       -0.2043488546
 H          4.8953010492        1.0875276744        1.9407985567
 H          4.0244574442        3.1054395342       -1.7203443067
 C          1.4132594088        3.4250731394       -1.3617730630
 O          0.2797779090        3.7514420497       -1.1199733080
 H          1.8668695983        3.6420405006       -2.3500440886
