  56
        -94.15229444
 C         -0.8921037791       -2.1082141237       -2.4090493006
 C         -0.6870040793       -1.5477167514       -3.8053128840
 C         -2.1488483002       -1.5285032952       -1.7459124322
 O         -2.7009952822       -0.5107545674       -2.1236858252
 O         -0.0585449450       -3.4174246049       -0.0720925659
 O          0.7076297398       -0.5892709077        2.2170086130
 N          0.2302409928       -1.7371567101       -1.5544697306
 C          0.5169881764       -2.3905221306       -0.4126395421
 C          1.7165857241       -1.8507575501        0.3635693845
 C          1.4066554126       -1.7553468596        1.8716730918
 N          2.8583053729       -2.7414968450        0.1869326311
 N         -2.5349300503       -2.2272188085       -0.6625676764
 C         -3.4473589963       -1.6497889241        0.3131516992
 C         -3.9969136947       -2.7340444192        1.2227571109
 C         -2.6105114252       -0.6243252191        1.0931794472
 O         -2.0405919425       -0.9057708729        2.1348862337
 N         -2.5237636958        0.5768178600        0.4978469291
 O          0.0221767012        0.8773501810       -0.5557224016
 O          0.6100533603        2.1928475337        1.1662615946
 C         -1.6666120360        1.6227111282        1.0115840015
 C         -0.2620081053        1.5069557506        0.4301698378
 C         -2.2415278513        2.9951225161        0.6701284602
 H         -0.9496291001       -3.2021830684       -2.4167618829
 H          0.2666500213       -1.8750904523       -4.2111229971
 H         -0.7123053784       -0.4613172952       -3.7655253585
 H         -1.4877509353       -1.8841209178       -4.4578425045
 H         -0.2502822607       -0.7664243036        2.2524629900
 H          0.5343653472       -0.7766615164       -1.6420689467
 H          1.9951722882       -0.8577232944       -0.0036996145
 H          2.3700486667       -1.7234550431        2.3921354331
 H          0.8689072273       -2.6579746092        2.1801499076
 H          3.0776462330       -2.8364342404       -0.7997681127
 H          2.6134629175       -3.6642954664        0.5346787636
 H         -1.9182223390       -2.9630871134       -0.3229043088
 H         -4.2457209276       -1.1403307154       -0.2362883135
 H         -3.1868920002       -3.1626837713        1.8081386819
 H         -4.4692342017       -3.5152762818        0.6335418193
 H         -4.7275040238       -2.3097348198        1.9057925076
 H         -2.8237429105        0.6583279654       -0.4695632418
 H         -1.5902466638        1.4905696021        2.0964306838
 H         -1.6126552870        3.7736502261        1.0906800030
 H         -3.2463797754        3.0849231012        1.0746662645
 H         -2.2740864196        3.1271833306       -0.4085472791
 C          1.9389982078        2.1827907534        0.7758196860
 C          2.3505381021        2.7520504132       -0.4371855800
 C          2.8538271499        1.5753312603        1.6215680871
 C          3.7039288691        2.6784415205       -0.7762286639
 C          4.6159850998        2.0771782895        0.0666968896
 C          4.1904735972        1.5286093317        1.2684460694
 H          2.4878334555        1.1255808419        2.5300228613
 H          5.6577069499        2.0293968750       -0.2112870310
 H          4.8998263833        1.0501798778        1.9257695492
 H          4.0288756488        3.1098317009       -1.7121047153
 C          1.4197482879        3.4363587296       -1.3440742722
 O          0.2873324170        3.7626590483       -1.0973256071
 H          1.8723942235        3.6622658275       -2.3307890246
