  56
        -94.15225292
 C         -2.0292579864       -1.9798492155       -0.9387338222
 C         -1.1938933228       -3.2240794440       -1.2274995349
 C         -1.4496619947       -0.7578849506       -1.6806463256
 O         -0.5015605328       -0.8458469384       -2.4318617645
 O         -0.3295885483       -0.2727408496        0.4996812079
 O         -1.9387671130        1.2936669751        3.1633712385
 N         -2.0765138230       -1.6966369567        0.4866640896
 C         -1.1409468838       -0.9523204984        1.1054559381
 C         -1.2267244790       -1.0002653046        2.6220798125
 C         -2.3291039621       -0.0383410312        3.1376654677
 N         -1.5651125428       -2.3682182030        3.0125944847
 N         -2.1927175501        0.3604538816       -1.5183228659
 C         -1.6309220760        1.6847433358       -1.7334189797
 C         -2.6913844931        2.6309820465       -2.2812666210
 C         -1.1595881616        2.1375968961       -0.3415153862
 O         -1.9699777952        2.1846343200        0.5758694470
 N          0.1337398449        2.4473589407       -0.2392318186
 O          1.7173335907        0.6475954595        2.3179283930
 O          2.0889518615        0.7850244370        0.0829001964
 C          0.8293026837        2.5080991443        1.0306812991
 C          1.5667486202        1.1819209611        1.2555221111
 C          1.8412097922        3.6526984902        1.0311997087
 H         -3.0606615869       -2.1281316910       -1.2829223054
 H         -1.1788617389       -3.4132141188       -2.2966280886
 H         -1.6072662743       -4.0883661149       -0.7126130956
 H         -0.1710355831       -3.0588753425       -0.8965657831
 H         -1.9345807237        1.6587676196        2.2560591461
 H         -2.5856364220       -2.3347077827        1.0861461050
 H         -0.2663568387       -0.6388555396        3.0211295702
 H         -2.5437924497       -0.3110206350        4.1774543599
 H         -3.2453231757       -0.1905501782        2.5490569057
 H         -1.7405933230       -2.4074276810        4.0114004165
 H         -0.7788376459       -2.9824673886        2.8223237260
 H         -2.8930520912        0.3522606000       -0.7869084757
 H         -0.7915675333        1.5805091760       -2.4232027751
 H         -3.1218154008        2.2254014865       -3.1930341535
 H         -2.2447853874        3.5972924536       -2.4983244131
 H         -3.4784480550        2.7678581172       -1.5427337147
 H          0.7352725646        2.2216485670       -1.0315805052
 H          0.0972885939        2.6327481065        1.8341979593
 H          2.3798780936        3.6719223297        1.9746730888
 H          1.3249966205        4.5997575618        0.8989811035
 H          2.5498705065        3.5197951601        0.2170483151
 C          2.3566205858       -0.5149217543       -0.2396833216
 C          2.2290121248       -0.8460540808       -1.6026702650
 C          2.7197162976       -1.4854584941        0.6845046470
 C          2.4701278234       -2.1621469628       -1.9945037946
 C          2.8229356379       -3.1271810418       -1.0727702871
 C          2.9445394968       -2.7849997475        0.2655243093
 H          2.8061576304       -1.2223265013        1.7260589082
 H          2.9983508323       -4.1440736866       -1.3901798711
 H          3.2181291644       -3.5356972334        0.9924817227
 H          2.3571668958       -2.4204427697       -3.0366928316
 C          1.8118757604        0.1243174166       -2.6194946865
 O          1.5834188027        1.3015967763       -2.4590337568
 H          1.7543945441       -0.3179085001       -3.6288368538
