  56
        -94.15219199
 C          0.1882367932       -0.8538402745        2.9187963115
 C          0.5236364423       -1.5726534202        4.2175484943
 C          0.0325573901       -1.8765647243        1.7843370329
 O          1.0028319767       -2.4211792826        1.2822335942
 O          0.4119998767        0.3664013765        0.4944695836
 O          4.8385909112        1.0512764660        0.1790094382
 N          1.2631702854        0.0519583296        2.5484350690
 C          1.3156953066        0.5422029278        1.2983071066
 C          2.5643155664        1.3480921482        0.9582371086
 C          3.6287145684        0.3847258472        0.3964231876
 N          2.3452707977        2.3811008109       -0.0380464071
 N         -1.2322282256       -2.1590130243        1.4466472542
 C         -1.5627005681       -3.1161067047        0.4044594531
 C         -2.9524786350       -3.6826049140        0.6474220785
 C         -1.4779523500       -2.4581355892       -0.9912967142
 O         -2.4441825279       -2.3083892178       -1.7089992261
 N         -0.2243420244       -2.1052577284       -1.3296113979
 O          1.2546109499        0.6925734642       -2.3292159422
 O         -0.9684809551        0.5901863849       -1.9598521871
 C          0.0763822843       -1.4180605112       -2.5694075152
 C          0.2239145325        0.0780760905       -2.2814036639
 C          1.3401678128       -1.9792507016       -3.2040277532
 H         -0.7365431760       -0.2735246317        3.0202482738
 H         -0.3012976900       -2.2178605642        4.5075968903
 H          0.6994390986       -0.8528251734        5.0139016522
 H          1.4128210814       -2.1850747706        4.0815635586
 H          4.6259171267        1.8507879467       -0.3214202589
 H          2.0793191330        0.0871554393        3.1380239176
 H          2.9563036906        1.8248714823        1.8653770470
 H          3.2408254215       -0.0429790450       -0.5390589510
 H          3.8318978858       -0.4275254355        1.0979817303
 H          1.6308191298        3.0303224427        0.2747389627
 H          2.0042834684        1.9479266795       -0.8951671380
 H         -1.9784684373       -1.5608216900        1.7740875334
 H         -0.8025606388       -3.9059116290        0.4474440616
 H         -3.1796823746       -4.4302232408       -0.1067363968
 H         -3.6938040047       -2.8908416939        0.5698114009
 H         -3.0105638825       -4.1378841482        1.6327189074
 H          0.5167403870       -2.1895503152       -0.6415163456
 H         -0.8015396346       -1.5538686076       -3.2136619283
 H          1.2198169005       -3.0419618247       -3.3944846382
 H          2.1866147687       -1.8303551543       -2.5379528491
 H          1.5460382726       -1.4690831211       -4.1407204027
 C         -1.0602134232        1.8502730092       -1.3996101772
 C         -1.7048403857        1.9583108085       -0.1580180867
 C         -0.5250130820        2.9713181549       -2.0113999370
 C         -1.7880990844        3.2057357484        0.4547572625
 C         -1.2612915046        4.3257471059       -0.1603388405
 C         -0.6338074505        4.2064588571       -1.3907147943
 H         -0.0196665413        2.8765932149       -2.9596996539
 H         -1.3321421000        5.2905166538        0.3187515456
 H         -0.2149433926        5.0778897809       -1.8706692522
 H         -2.2738606258        3.2708988336        1.4170244552
 C         -2.2085738802        0.7451920161        0.4894794454
 O         -2.4720406886        0.6292604407        1.6651398759
 H         -2.3417664808       -0.0965780723       -0.2075685163
