  56
        -94.15217712
 C         -1.8259750391       -2.7369154888       -1.6783192018
 C         -2.3779618304       -2.7609590985       -3.0937592843
 C         -2.7080017856       -1.8769471635       -0.7532243000
 O         -3.5596189466       -1.1098418374       -1.1716229338
 O          0.1732840371       -3.0195470380        0.3175007618
 O          2.7204371268       -2.4726867235        1.1609191487
 N         -0.4762763597       -2.2022295501       -1.6847235915
 C          0.4075942202       -2.3748501409       -0.7030984112
 C          1.7528110745       -1.7000594792       -0.9556144011
 C          2.8799361369       -2.4646442989       -0.2269708677
 N          1.9685921025       -1.5474281288       -2.3863533644
 N         -2.4455338127       -2.0742319384        0.5459787856
 C         -3.0345148233       -1.2547573479        1.5953895603
 C         -2.8173398893       -1.9118636702        2.9465991207
 C         -2.3343868560        0.1080098649        1.5070662408
 O         -1.3526933112        0.4014073112        2.1614955729
 N         -2.8711823853        0.9331199381        0.5838833767
 O         -0.3203316045        0.6792596957       -0.5661500017
 O          0.1944185357        2.5387770086        0.5911223257
 C         -2.1055587489        2.1071355461        0.2029447809
 C         -0.6513118051        1.6650214185        0.0395202889
 C         -2.6335359899        2.6806026452       -1.1045135861
 H         -1.7772212758       -3.7494571811       -1.2574322439
 H         -3.3610448470       -3.2230626512       -3.0975148923
 H         -1.7175122286       -3.3214198110       -3.7501105335
 H         -2.4805765836       -1.7440658392       -3.4642572937
 H          1.8227681035       -2.8078575327        1.3295288666
 H         -0.2055916221       -1.5628876999       -2.4200385986
 H          1.6668319261       -0.6988720465       -0.5160687161
 H          3.8402415303       -1.9785628262       -0.4306470856
 H          2.9206630972       -3.4942492805       -0.6219748609
 H          2.2185391092       -2.4420392138       -2.7977731039
 H          2.7323369276       -0.9043782793       -2.5599647763
 H         -1.6014845858       -2.5925140659        0.7885779166
 H         -4.1001385315       -1.1340009913        1.3710249636
 H         -3.2062445299       -2.9266121903        2.9410344388
 H         -3.3213922999       -1.3404730034        3.7210683145
 H         -1.7538436794       -1.9330322274        3.1725570049
 H         -3.4768152598        0.5179735967       -0.1212510731
 H         -2.1501774669        2.8479400486        1.0098233704
 H         -3.6785130604        2.9570620962       -0.9898642611
 H         -2.5478691652        1.9359617237       -1.8930452910
 H         -2.0654100032        3.5630695842       -1.3870244767
 C          1.5294123324        2.1649843803        0.7097385571
 C          2.5273753960        2.9603714881        0.1348377913
 C          1.8559677899        1.0213229117        1.4208102255
 C          3.8606470082        2.5745134514        0.2935438369
 C          4.1868246684        1.4308105969        0.9936547928
 C          3.1849856723        0.6551692059        1.5606029483
 H          1.0633879227        0.4365909811        1.8636230732
 H          5.2207161776        1.1406949709        1.1036735931
 H          3.4276854903       -0.2495142027        2.0959798394
 H          4.6202132725        3.1987261222       -0.1533279535
 C          2.1971655164        4.1695755689       -0.6271156303
 O          2.9972230561        4.8700373509       -1.1937600727
 H          1.1159354209        4.4032013977       -0.6481513475
