  56
        -94.15217487
 C         -1.7613736004       -2.7610869572       -1.6895783225
 C         -2.3043521179       -2.7977564751       -3.1082442849
 C         -2.6661897236       -1.9184536174       -0.7706151832
 O         -3.5294540288       -1.1677448433       -1.1948829525
 O          0.2305545890       -3.0052264803        0.3170662258
 O          2.7659791614       -2.4243347539        1.1692305212
 N         -0.4227989325       -2.1992744677       -1.6883726435
 C          0.4581175642       -2.3544033557       -0.7012024168
 C          1.7909313676       -1.6520055661       -0.9440140373
 C          2.9303240313       -2.4006721791       -0.2178497817
 N          2.0086419039       -1.4832533303       -2.3726036363
 N         -2.4096421638       -2.1113667472        0.5304399110
 C         -3.0243027533       -1.3058116815        1.5759361227
 C         -2.8063171261       -1.9610768908        2.9279233829
 C         -2.3509213437        0.0708843278        1.4964573965
 O         -1.3822423119        0.3829209444        2.1615410095
 N         -2.8947029900        0.8863894149        0.5686731959
 O         -0.3348411749        0.6743052988       -0.5624878446
 O          0.1444960751        2.5424068766        0.5954600580
 C         -2.1468855746        2.0740420265        0.1944868734
 C         -0.6847408698        1.6557617019        0.0395237490
 C         -2.6765165106        2.6409475865       -1.1151386992
 H         -1.6943967890       -3.7720200345       -1.2673457876
 H         -1.6284124831       -3.3447967956       -3.7601286978
 H         -2.4260262176       -1.7835428154       -3.4803008221
 H         -3.2774838179       -3.2803998545       -3.1174006016
 H          1.8730412400       -2.7753247647        1.3312841208
 H         -0.1616145405       -1.5519236366       -2.4201502753
 H          1.6843909635       -0.6565114599       -0.4962686410
 H          3.8815796825       -1.8939354338       -0.4135916330
 H          2.9928296655       -3.4257055080       -0.6219155573
 H          2.7587049750       -0.8222604797       -2.5382334732
 H          2.2795573764       -2.3688620307       -2.7901745989
 H         -1.5572493991       -2.6126318618        0.7792292644
 H         -4.0900427202       -1.2060507722        1.3419908687
 H         -3.3287868711       -1.4014116755        3.6987423688
 H         -1.7447204877       -1.9613464007        3.1635936328
 H         -3.1746877191       -2.9834128508        2.9170185860
 H         -3.4849002353        0.4597135540       -0.1427050079
 H         -2.2088397539        2.8123799605        1.0024313474
 H         -2.5733451082        1.8994160075       -1.9045117723
 H         -2.1218042519        3.5335292025       -1.3924753695
 H         -3.7267471839        2.8993043947       -1.0064354082
 C          1.4832950057        2.1851755641        0.7247915095
 C          2.4757938822        2.9828406249        0.1438478996
 C          1.8178057286        1.0539333978        1.4519252454
 C          3.8121430500        2.6126829620        0.3140258440
 C          4.1464543303        1.4820339604        1.0312628438
 C          3.1497907125        0.7035153080        1.6033940413
 H          1.0285598815        0.4662738009        1.8968881614
 H          5.1826249908        1.2038095236        1.1500781416
 H          3.3996388870       -0.1918203757        2.1509512851
 H          4.5675194794        3.2383410733       -0.1379062150
 C          2.1369971224        4.1777991068       -0.6365922516
 O          2.9324062747        4.8768447315       -1.2114531625
 H          1.0537800128        4.4013811749       -0.6640559204
