  56
        -94.15217291
 C         -2.2497064661        0.6018472366       -2.2606021541
 C         -1.7001911340        0.5891720617       -3.6767269227
 C         -1.9185440302        1.9215466025       -1.5524764832
 O         -1.1956312889        2.7804013438       -2.0288435453
 O         -3.3905166082       -0.6833118298       -0.0603583309
 O          0.0549022950       -0.6939095840        1.3917438855
 N         -1.6598188274       -0.4875230568       -1.4927003119
 C         -2.2738112986       -1.0302134836       -0.4295198514
 C         -1.5244479513       -2.1518004524        0.2928330480
 C         -1.0104740044       -1.5858510565        1.6291196268
 N         -2.3873477757       -3.2858182237        0.5665385104
 N         -2.4727232276        2.0146713988       -0.3317705072
 C         -2.0376857681        3.0087205437        0.6392429444
 C         -3.0267568694        3.0895730296        1.7875326054
 C         -0.6516502255        2.5348290046        1.1064417211
 O         -0.4860814871        1.8750624436        2.1199324845
 N          0.3397256119        2.8695792739        0.2615829214
 O          0.9774972449        0.5705586944       -1.1699982960
 O          2.6138964024        0.1408756620        0.3112760753
 C          1.6613173118        2.2953836710        0.3843354785
 C          1.6879221708        0.9080392849       -0.2605640872
 C          2.6902269603        3.1894099501       -0.3029053440
 H         -3.3356707924        0.4510528796       -2.2476855677
 H         -2.1521998255        1.3909515903       -4.2534051715
 H         -1.9094386731       -0.3626299690       -4.1574016678
 H         -0.6258880541        0.7525296785       -3.6452810381
 H         -0.0831428427        0.1253154897        1.9032675618
 H         -0.6613390774       -0.6057501342       -1.6043329343
 H         -0.6667887489       -2.4871923424       -0.2986616829
 H         -0.6542872805       -2.4212675931        2.2481685817
 H         -1.8367164790       -1.0931689715        2.1491766490
 H         -3.2077479096       -2.9590250137        1.0697657600
 H         -2.7117427965       -3.6954966045       -0.3034726417
 H         -3.0248629278        1.2338558462        0.0133571354
 H         -1.9431620139        3.9701842872        0.1222357013
 H         -2.7280606957        3.8725082756        2.4790360170
 H         -3.0425967064        2.1449450785        2.3260484359
 H         -4.0231012750        3.3057370333        1.4117265217
 H          0.0711309921        3.1927665053       -0.6674699107
 H          1.8887814113        2.1833929174        1.4492927943
 H          2.4536246344        3.2792799605       -1.3611217369
 H          3.6850759927        2.7658646720       -0.1946850790
 H          2.6764472114        4.1791590444        0.1457654139
 C          2.6795130443       -1.1965153448       -0.0826838270
 C          2.3608839605       -2.1789029108        0.8571675536
 C          3.0180021549       -1.5379142245       -1.3803569105
 C          2.3804098811       -3.5131200127        0.4607514244
 C          2.7245680043       -3.8602359677       -0.8321163561
 C          3.0479416777       -2.8735506168       -1.7494967615
 H          3.2487457081       -0.7625085545       -2.0950393854
 H          2.7363890176       -4.8980047400       -1.1285978553
 H          3.3155134222       -3.1385458904       -2.7612136579
 H          2.1133191719       -4.2614479539        1.1915798606
 C          1.9855013672       -1.8228567930        2.2423652629
 O          1.4596321224       -2.5872880625        3.0128742393
 H          2.3038668247       -0.8133054274        2.5516419949
