  56
        -94.15217271
 C         -2.2624854089        0.5737262020       -2.2564746146
 C         -1.7237473779        0.5418337490       -3.6763879451
 C         -1.9260420002        1.9027808540       -1.5685394775
 O         -1.2035021642        2.7534386437       -2.0598607638
 O         -3.3836898027       -0.6794270960       -0.0273553563
 O          0.0678703826       -0.6729920114        1.4060829589
 N         -1.6663342591       -0.5050181705       -1.4784266160
 C         -2.2704579946       -1.0318543707       -0.4016936235
 C         -1.5150712348       -2.1439722324        0.3289355491
 C         -0.9953617838       -1.5638702640        1.6568882618
 N         -2.3745434111       -3.2766795825        0.6185773193
 N         -2.4752720276        2.0142197845       -0.3470948832
 C         -2.0342894577        3.0214029188        0.6075385061
 C         -3.0194715736        3.1223631057        1.7575858073
 C         -0.6481863318        2.5504545511        1.0772418875
 O         -0.4813621689        1.9045111374        2.0993684867
 N          0.3416806691        2.8706039039        0.2248868109
 O          0.9695308327        0.5563798570       -1.1824261530
 O          2.6157117948        0.1403421743        0.2918696932
 C          1.6621955455        2.2949839685        0.3523563289
 C          1.6857700196        0.9022230461       -0.2807471715
 C          2.6934506504        3.1814350520       -0.3411705710
 H         -3.3482480912        0.4229597474       -2.2332199164
 H         -1.9349561798       -0.4170597458       -4.1418961386
 H         -0.6495537488        0.7074536441       -3.6554437868
 H         -2.1815277553        1.3345465776       -4.2609658088
 H         -0.0720235316        0.1532070266        1.9056842351
 H         -0.6688782558       -0.6248962892       -1.5970779296
 H         -0.6599349513       -2.4841463719       -0.2634705250
 H         -0.6351929972       -2.3926047197        2.2824261954
 H         -1.8198118013       -1.0671400001        2.1758427617
 H         -2.7043440324       -3.6944985075       -0.2454815940
 H         -3.1918709951       -2.9466250671        1.1245313866
 H         -3.0250771113        1.2380975314        0.0122925307
 H         -1.9387514148        3.9746335802        0.0757231916
 H         -4.0163621198        3.3356489123        1.3816093567
 H         -2.7164430753        3.9148052066        2.4362472281
 H         -3.0362373552        2.1859854756        2.3102647259
 H          0.0714229803        3.1815567087       -0.7077823563
 H          1.8889039201        2.1912444423        1.4183316019
 H          3.6871938624        2.7562991427       -0.2292412059
 H          2.6817833672        4.1744826592        0.1001747360
 H          2.4576722342        3.2640822083       -1.4001348670
 C          2.6746991930       -1.2019058350       -0.0859815664
 C          2.3655954524       -2.1712825313        0.8705059846
 C          2.9959604458       -1.5609964436       -1.3832462746
 C          2.3771371520       -3.5105946013        0.4913916569
 C          2.7039022435       -3.8753231039       -0.8011420389
 C          3.0178511824       -2.9014244209       -1.7352939550
 H          3.2193973631       -0.7956535037       -2.1109506565
 H          2.7093910362       -4.9168652553       -1.0842532456
 H          3.2716613401       -3.1802212573       -2.7468473717
 H          2.1175118415       -4.2487043051        1.2351694967
 C          2.0069988834       -1.7959753128        2.2549848672
 O          1.4882662739       -2.5487170327        3.0415311112
 H          2.3305017718       -0.7829076117        2.5468847076
