  56
        -94.15217205
 C         -2.2754768038        0.5651223931       -2.2525673239
 C         -1.7479385752        0.5285878606       -3.6765958115
 C         -1.9339042387        1.8963385215       -1.5714902578
 O         -1.2131913242        2.7443531255       -2.0700639274
 O         -3.3824821108       -0.6817099796       -0.0141215720
 O          0.0717863779       -0.6645269445        1.4084064855
 N         -1.6731686061       -0.5105504822       -1.4749953718
 C         -2.2706849342       -1.0339413100       -0.3928204575
 C         -1.5098517865       -2.1418209545        0.3386100844
 C         -0.9896370274       -1.5562321690        1.6639815904
 N         -2.3648550853       -3.2767477985        0.6330174209
 N         -2.4756517126        2.0128441021       -0.3472006115
 C         -2.0294721374        3.0248000631        0.5999310576
 C         -3.0091321567        3.1330316375        1.7540202357
 C         -0.6412951861        2.5559490315        1.0658217990
 O         -0.4697712128        1.9169431209        2.0915113308
 N          0.3441972277        2.8697985334        0.2061909760
 O          0.9676664079        0.5462166162       -1.1891738625
 O          2.6193660987        0.1411232739        0.2820959988
 C          1.6657235853        2.2959078798        0.3306361775
 C          1.6870223675        0.8985598180       -0.2924721209
 C          2.6922668002        3.1782709070       -0.3750371767
 H         -3.3609862554        0.4141204845       -2.2203870965
 H         -1.9619117934       -0.4322066874       -4.1368941176
 H         -0.6737667661        0.6953894934       -3.6650742290
 H         -2.2113233722        1.3186676562       -4.2603773951
 H         -0.0672973979        0.1629227006        1.9062011189
 H         -0.6761657187       -0.6293144240       -1.5986806170
 H         -0.6546949064       -2.4804937851       -0.2546316352
 H         -0.6273390093       -2.3819939002        2.2922891701
 H         -1.8143750828       -1.0590181339        2.1820176748
 H         -2.6921880523       -3.7002400251       -0.2292209057
 H         -3.1838846961       -2.9475621354        1.1369193384
 H         -3.0237880317        1.2387141375        0.0187724012
 H         -1.9358992090        3.9749534010        0.0622696140
 H         -3.0215144110        2.2010075703        2.3141307228
 H         -4.0082344256        3.3417255638        1.3813237859
 H         -2.7041408165        3.9313189393        2.4249146452
 H          0.0692737981        3.1754909938       -0.7268528612
 H          1.8984073812        2.1999973775        1.3960416095
 H          3.6872210574        2.7555654069       -0.2646430177
 H          2.6812231209        4.1748303743        0.0584025694
 H          2.4511067963        3.2520921439       -1.4334563698
 C          2.6758487851       -1.2042927856       -0.0850649947
 C          2.3653298422       -2.1653798385        0.8792918895
 C          2.9956771209       -1.5743461139       -1.3795798668
 C          2.3723143184       -3.5075702536        0.5104744477
 C          2.6968876928       -3.8832314885       -0.7794703708
 C          3.0136960859       -2.9175513431       -1.7211741973
 H          3.2210057363       -0.8152812003       -2.1132626419
 H          2.6987369020       -4.9269223109       -1.0545954692
 H          3.2665607270       -3.2049860205       -2.7305474623
 H          2.1108635722       -4.2390355679        1.2601575391
 C          2.0101161686       -1.7786598781        2.2615580909
 O          1.4929899231       -2.5249633725        3.0553414182
 H          2.3348112169       -0.7634660748        2.5446216318
