  56
        -94.15217122
 C         -2.2937602127        0.5476204017       -2.2486847592
 C         -1.7812923493        0.4969621797       -3.6777495575
 C         -1.9442236675        1.8848140735       -1.5834096743
 O         -1.2229261131        2.7249432791       -2.0943339128
 O         -3.3758821891       -0.6735785139        0.0159183586
 O          0.0840505099       -0.6498831306        1.4205152739
 N         -1.6835667937       -0.5204564542       -1.4666849277
 C         -2.2685697543       -1.0306895192       -0.3713711261
 C         -1.5011550190       -2.1325166982        0.3621324275
 C         -0.9767731906       -1.5403226233        1.6829270830
 N         -2.3518756469       -3.2687544121        0.6646957679
 N         -2.4798549832        2.0157356876       -0.3579301055
 C         -2.0259478563        3.0355404190        0.5770099423
 C         -2.9998261587        3.1576693859        1.7346420343
 C         -0.6369954090        2.5674215549        1.0412706792
 O         -0.4626299825        1.9389618134        2.0729467638
 N          0.3455707623        2.8695617300        0.1741172013
 O          0.9593445867        0.5303263586       -1.1987976256
 O          2.6182292921        0.1387917390        0.2682701640
 C          1.6664554232        2.2944871336        0.2998375404
 C          1.6834463823        0.8909013977       -0.3092062464
 C          2.6924860834        3.1676441632       -0.4179553570
 H         -3.3788931963        0.3973704953       -2.2036482068
 H         -0.7076405413        0.6673914468       -3.6797666575
 H         -2.2536154830        1.2788660823       -4.2653734330
 H         -1.9969761804       -0.4696011066       -4.1249761637
 H         -0.0578704561        0.1835004397        1.9074955139
 H         -0.6878831725       -0.6405264012       -1.5994086163
 H         -0.6476981267       -2.4716513178       -0.2333311059
 H         -0.6124160020       -2.3632052839        2.3136263621
 H         -1.7999795961       -1.0409906177        2.2013052828
 H         -2.6848926774       -3.6940631973       -0.1944961285
 H         -3.1675861057       -2.9405588121        1.1745060658
 H         -3.0261387617        1.2456369460        0.0194784273
 H         -1.9321792366        3.9801562145        0.0297228935
 H         -3.0149484194        2.2297333804        2.3014410570
 H         -3.9993973184        3.3692861275        1.3648818690
 H         -2.6873469248        3.9589589308        2.3984681573
 H          0.0676660258        3.1661365052       -0.7609622008
 H          1.9023704358        2.2088841699        1.3654160827
 H          2.4486504821        3.2306230075       -1.4764575977
 H          3.6870238062        2.7444567375       -0.3057437415
 H          2.6842605775        4.1687673006        0.0048668613
 C          2.6723353655       -1.2104813916       -0.0843246797
 C          2.3723912600       -2.1608428219        0.8939219685
 C          2.9797137145       -1.5949988241       -1.3776640294
 C          2.3781714296       -3.5072238219        0.5406120817
 C          2.6908381199       -3.8972786583       -0.7479956072
 C          2.9962878529       -2.9420097968       -1.7039596035
 H          3.1965584253       -0.8441453549       -2.1222626827
 H          2.6918466277       -4.9440707480       -1.0110667597
 H          3.2393445598       -3.2406754154       -2.7124860942
 H          2.1252279324       -4.2304256189        1.3011515893
 C          2.0285193023       -1.7586591141        2.2746277945
 O          1.5166554378       -2.4956577660        3.0803322811
 H          2.3555899821       -0.7405130278        2.5438426914
