  56
        -94.15217085
 C         -2.2726935664        0.5916380156       -2.2575704999
 C         -1.7395664697        0.5685635316       -3.6797817276
 C         -1.9335331407        1.9159923028       -1.5621496091
 O         -1.2091555707        2.7678541496       -2.0488126077
 O         -3.3865177200       -0.6748095028       -0.0332154567
 O          0.0668913281       -0.6820422878        1.4003598800
 N         -1.6731348592       -0.4912900853       -1.4878467956
 C         -2.2741384825       -1.0247446005       -0.4125050937
 C         -1.5170862904       -2.1417687427        0.3087841929
 C         -0.9982973266       -1.5730748866        1.6420598333
 N         -2.3751740207       -3.2782581493        0.5880915783
 N         -2.4812875597        2.0208955989       -0.3395015999
 C         -2.0363389710        3.0201187381        0.6215933822
 C         -3.0197205491        3.1156174686        1.7736618451
 C         -0.6506595879        2.5429841393        1.0865311124
 O         -0.4836177989        1.8918977899        2.1053634119
 N          0.3382889031        2.8647967647        0.2339425451
 O          0.9725464742        0.5524558572       -1.1811022559
 O          2.6143088904        0.1372402955        0.2988150316
 C          1.6593974617        2.2901176708        0.3581958020
 C          1.6851103779        0.8979059599       -0.2763608618
 C          2.6879677071        3.1787476848       -0.3366300909
 H         -3.3582941874        0.4402651680       -2.2310200259
 H         -2.2015799261        1.3633229193       -4.2582723345
 H         -1.9506228611       -0.3882837545       -4.1495424978
 H         -0.6656311811        0.7364140507       -3.6625687029
 H         -0.0746592754        0.1423353520        1.9026037637
 H         -0.6758141215       -0.6095831162       -1.6095760931
 H         -0.6613501176       -2.4755665369       -0.2863978023
 H         -0.6403170397       -2.4074625822        2.2613252614
 H         -1.8226787121       -1.0793130409        2.1639313031
 H         -2.7049212736       -3.6882786109       -0.2797540984
 H         -3.1925650949       -2.9540367625        1.0977836181
 H         -3.0317055450        1.2432062044        0.0156585432
 H         -1.9391007509        3.9768866924        0.0964581911
 H         -3.0415844318        2.1739480032        2.3171120715
 H         -4.0157207222        3.3386825844        1.4009728019
 H         -2.7110545129        3.8994302999        2.4597837836
 H          0.0675682506        3.1819707574       -0.6964911856
 H          1.8884510680        2.1854672200        1.4235733396
 H          2.4473083894        3.2652451523       -1.3942048042
 H          3.6820787423        2.7528678036       -0.2308837028
 H          2.6788234229        4.1702290234        0.1083246805
 C          2.6816359690       -1.2038318598       -0.0815555442
 C          2.3709602895       -2.1768924572        0.8706484484
 C          3.0151319831       -1.5584243935       -1.3769725519
 C          2.3935993052       -3.5153489477        0.4890441795
 C          2.7334765892       -3.8756217438       -0.8013630962
 C          3.0486396341       -2.8980194633       -1.7312241218
 H          3.2396484950       -0.7902321878       -2.1013509259
 H          2.7483637954       -4.9166131913       -1.0861605814
 H          3.3127653882       -3.1733567814       -2.7410853890
 H          2.1329622840       -4.2565307510        1.2294142430
 C          2.0012441127       -1.8069376134        2.2537284793
 O          1.4783893677       -2.5635691423        3.0338266436
 H          2.3207287193       -0.7943138145        2.5515351064
