  56
        -94.15216769
 C         -1.6969960862       -2.7572948789       -1.7323647913
 C         -2.2267477682       -2.7767997122       -3.1563872594
 C         -2.6242104462       -1.9467853372       -0.8067818857
 O         -3.4998790172       -1.2074414040       -1.2256196851
 O          0.2825292237       -3.0024628809        0.2880221098
 O          2.7983621486       -2.3863039602        1.1746996888
 N         -0.3678920678       -2.1739016917       -1.7093318452
 C          0.5071131934       -2.3307655559       -0.7173002222
 C          1.8295300235       -1.6013815365       -0.9364777820
 C          2.9750036108       -2.3406701667       -0.2103327673
 N          2.0577836559       -1.4065551786       -2.3600451565
 N         -2.3722593109       -2.1542275045        0.4928916678
 C         -3.0083982032       -1.3765362210        1.5466730834
 C         -2.7837073581       -2.0470396206        2.8900564849
 C         -2.3622294852        0.0143093357        1.4904495157
 O         -1.4038487527        0.3361699159        2.1656844397
 N         -2.9167800359        0.8315275324        0.5704475461
 O         -0.3518071255        0.6746163231       -0.5528915142
 O          0.0943964714        2.5395619082        0.6225198427
 C         -2.1885945145        2.0365722544        0.2135872715
 C         -0.7193601723        1.6448506334        0.0567340297
 C         -2.7253358720        2.6114600125       -1.0896549840
 H         -1.6171983020       -3.7745678030       -1.3279271082
 H         -2.3587677959       -1.7580078422       -3.5120598671
 H         -3.1931823671       -3.2720797855       -3.1827428567
 H         -1.5376602703       -3.3033185352       -3.8113874934
 H          1.9108082921       -2.7562205178        1.3234866404
 H         -0.1115678259       -1.5094713025       -2.4273897717
 H          1.7010215201       -0.6150366543       -0.4744957617
 H          3.9191251673       -1.8150666817       -0.3901418212
 H          3.0587460769       -3.3587433882       -0.6278407666
 H          2.3483128750       -2.2806169456       -2.7885880306
 H          2.7974763742       -0.7298939965       -2.5081654281
 H         -1.5126179392       -2.6439898192        0.7397971968
 H         -4.0747902876       -1.2946937357        1.3087684021
 H         -1.7234228886       -2.0295131633        3.1309468484
 H         -3.1313375774       -3.0762969425        2.8624226556
 H         -3.3209154105       -1.5093345175        3.6663554535
 H         -3.4945685543        0.4024513403       -0.1497098495
 H         -2.2646980412        2.7631454068        1.0309083848
 H         -2.6080436393        1.8822226051       -1.8884536749
 H         -2.1855989015        3.5170454317       -1.3540641378
 H         -3.7800652409        2.8502478149       -0.9797594101
 C          1.4377063216        2.1994332690        0.7536479003
 C          2.4213341443        3.0040581785        0.1675037807
 C          1.7842608907        1.0763068931        1.4877335026
 C          3.7616773119        2.6501599339        0.3410655937
 C          4.1082159555        1.5284780748        1.0665353786
 C          3.1200309763        0.7421945087        1.6427808133
 H          1.0009094212        0.4818118944        1.9341295872
 H          5.1473867887        1.2629833225        1.1882230187
 H          3.3799305603       -0.1468336514        2.1958378890
 H          4.5102714747        3.2810064156       -0.1149296911
 C          2.0694460736        4.1888267669       -0.6226551703
 O          2.8572921822        4.8926192720       -1.2020801568
 H          0.9836827016        4.3993084944       -0.6533273216
