  48
        -65.80890338
 Si         3.4759490975        0.1722131068       -0.0196377833
 C          3.1784981643       -0.4047274277        1.7705632848
 H          2.8158877144       -1.4287414250        1.7684274365
 H          2.4303654911        0.2070274243        2.2698265947
 H          4.0828256296       -0.3713621695        2.3694413925
 C          4.7254744110       -0.8959319522       -0.9597091389
 H          4.8477772886       -0.5616662954       -1.9852865656
 H          4.3922873646       -1.9283930220       -0.9862717650
 H          5.6995763192       -0.8686916193       -0.4832268295
 C          3.9033261656        2.0314421872       -0.0578770413
 O          1.2041389037       -2.6667579054        0.0682612538
 H          4.8384248874        2.2370760187        0.4529747001
 H          3.1301734015        2.6288486067        0.4179331077
 H          4.0014188385        2.3872130404       -1.0795487844
 C          0.1630705533       -2.0458814247        0.1154586366
 C         -1.1355317439       -2.5567209835        0.7306140249
 H         -1.6305381995       -3.2039357109        0.0046800104
 H         -0.9369782273       -3.1493941207        1.6228440412
 C         -0.0951907975       -0.6925164328       -0.3276617994
 C          0.8398180257        0.2135746447       -0.6914334057
 O          2.0961393758       -0.1050104593       -0.9043478471
 C         -2.2117609627        1.8104214263        1.1489954506
 C         -1.5533323767       -0.3358935111       -0.1226480616
 C         -1.9606266375       -1.2970027049        1.0143251258
 C         -2.3419214313       -0.6324133225       -1.4156837295
 O          0.5983119491        1.5286285711       -0.8648040697
 C         -3.4636213814       -1.5359152827        1.1538369266
 C         -3.8422547033       -0.6816280249       -1.1587174563
 H         -2.0118952435       -1.5939627283       -1.8134608240
 H         -2.1088159451        0.1269503127       -2.1643607336
 C         -4.1549126339       -1.8047141306       -0.1778938982
 H         -3.9203021314       -0.6522660050        1.6043628319
 H         -3.6250157735       -2.3741739178        1.8355593189
 H         -4.3701684525       -0.8460473589       -2.1001877536
 H         -4.1751934547        0.2726915451       -0.7440015391
 H         -5.2323595785       -1.8791670935       -0.0178681632
 H         -3.8169524544       -2.7548755719       -0.5959601037
 C         -1.8752131281        3.2711080738        1.1063504788
 C         -1.5926938298        1.1181525603        0.2046692809
 H         -2.9030849343        1.4196906631        1.8740274707
 C         -0.7215446425        2.0184699259       -0.6420086786
 C         -0.6735226712        3.3349195116        0.1507636802
 H         -0.6956504018        4.2071487077       -0.4980391284
 H          0.2594518141        3.3509139938        0.7144704388
 H         -1.6427949342        3.6666211228        2.0958485478
 H         -2.7220078522        3.8404128698        0.7134187867
 H         -1.1771798448        2.1672732573       -1.6326383183
 H         -1.5959901891       -0.8652388999        1.9540013055
