  48
        -65.80872539
 Si         3.4863424884        0.1346516317        0.2123454897
 C          3.2822061705       -0.8071976749        1.8536543652
 H          2.5537654690       -0.3309799646        2.5059490333
 H          4.2157396877       -0.8787976483        2.4023912892
 H          2.9305691126       -1.8154006865        1.6534652858
 C          4.8600678172       -0.5648274213       -0.8900383207
 H          4.9418341614       -0.0210729470       -1.8262050936
 H          4.6632905599       -1.6049454413       -1.1287178301
 H          5.8220459457       -0.5130162366       -0.3913873851
 C          3.6796710313        2.0058527840        0.5348068419
 O          1.1252416099       -2.7194029291        0.1272408103
 H          2.9142804461        2.3745014377        1.2129389427
 H          3.5935578977        2.5716775789       -0.3884713747
 H          4.6436345114        2.2375393868        0.9762053175
 C          0.1019231909       -2.0682836316        0.1184416353
 C         -1.2470454509       -2.5502740060        0.6417046577
 H         -1.7063207355       -3.1844248586       -0.1183971242
 H         -1.1221783966       -3.1499650957        1.5425860510
 C         -0.0903589546       -0.7035744981       -0.3243677653
 C          0.8863818891        0.1858762206       -0.6118992035
 O          2.1502069970       -0.1507927982       -0.7336630476
 C         -2.2536222969        1.8391740852        1.0089397872
 C         -1.5521887352       -0.3166149224       -0.2239406949
 C         -2.0609574668       -1.2731974268        0.8750601070
 C         -2.2511649364       -0.5929955720       -1.5718274565
 O          0.6821241750        1.5053922539       -0.7996525505
 C         -3.5752098795       -1.4774706209        0.9057926694
 C         -3.7669068014       -0.6075170695       -1.4242430801
 H         -1.9154472529       -1.5614238259       -1.9474732422
 H         -1.9469335872        0.1615616514       -2.2995022193
 C         -4.1758484237       -1.7252653156       -0.4731957006
 H         -4.0423791510       -0.5850724829        1.3273604811
 H         -3.8040938138       -2.3142821091        1.5697496059
 H         -4.2291038912       -0.7572311479       -2.4020291849
 H         -4.1065625057        0.3534055408       -1.0307550685
 H         -5.2634681708       -1.7737088274       -0.3907814537
 H         -3.8321109115       -2.6822531514       -0.8704548247
 C         -1.8867685326        3.2930458004        0.9943994102
 C         -1.5861869644        1.1368631844        0.1059778518
 H         -2.9996639234        1.4606992603        1.6845812624
 C         -0.6410373456        2.0203265219       -0.6759827766
 C         -0.6267829747        3.3383038825        0.1156583440
 H         -0.5984645847        4.2084832388       -0.5356809806
 H          0.2701108234        3.3456111602        0.7350131695
 H         -1.7090107398        3.6797169764        1.9986553779
 H         -2.6966472024        3.8803246399        0.5531065726
 H         -1.0197702842        2.1738438200       -1.6977787450
 H         -1.7542881522       -0.8545779637        1.8410139257
