  48
        -65.80823327
 Si         3.5724608947        0.0342720831       -0.0709760403
 C          3.5290232386        1.6350743838        0.9648315843
 H          2.8479395269        1.5370420428        1.8067524328
 H          3.1951938303        2.4802133316        0.3695461540
 H          4.5084801892        1.8776276824        1.3646681660
 C          4.0195515955       -1.4780588638        0.9913679741
 H          5.0900401890       -1.6540276233        1.0138580588
 H          3.5379159519       -2.3636913727        0.5866540865
 H          3.6843300283       -1.3687780832        2.0192326736
 C          4.6838659928        0.2210703912       -1.6014835995
 O          0.8651210737       -2.8707287297       -0.1328929677
 H          5.7245015334        0.3367567185       -1.3169787493
 H          4.4069393122        1.0844421186       -2.1998513190
 H          4.6108206894       -0.6560499151       -2.2371644506
 C         -0.1029049069       -2.1455287509       -0.0466290584
 C         -1.4858125984       -2.5790738713        0.4297962943
 H         -1.9974508164       -3.0727638066       -0.3980855104
 H         -1.4084762496       -3.2953840188        1.2468407063
 C         -0.1878471602       -0.7262794587       -0.3185138281
 C          0.8567852539        0.1090817421       -0.5213542218
 O          2.0781710350       -0.3258821731       -0.7015718623
 C         -2.1141046376        1.7916874740        1.3671235302
 C         -1.6109539410       -0.2363589139       -0.1462614110
 C         -2.1913824642       -1.2796061517        0.8318909212
 C         -2.3385468928       -0.2785002077       -1.5064789738
 O          0.7589650871        1.4542534785       -0.5569156944
 C         -3.7171485265       -1.3625579081        0.8599086362
 C         -3.8494057446       -0.1888424655       -1.3371245208
 H         -2.0864015656       -1.2145773378       -2.0083764740
 H         -1.9770419881        0.5364329507       -2.1363571601
 C         -4.3432452486       -1.3827668005       -0.5298099480
 H         -4.1070144438       -0.4962090554        1.3983414772
 H         -4.0109518851       -2.2558545303        1.4159262651
 H         -4.3282307077       -0.1737517880       -2.3182953896
 H         -4.1064128048        0.7378467287       -0.8186551923
 H         -5.4307799602       -1.3539450344       -0.4373132361
 H         -4.0806130354       -2.3054441215       -1.0508422835
 C         -1.6215081419        3.1982446484        1.5344150957
 C         -1.5176781892        1.1601704241        0.3671994825
 H         -2.8844683222        1.3922041974        2.0020423873
 C         -0.5089845580        2.0582250491       -0.3126874889
 C         -0.3609183290        3.2421129772        0.6571208183
 H         -0.2408892721        4.1892226747        0.1364661188
 H          0.5284899440        3.0681410206        1.2627796811
 H         -1.4125275883        3.4382032059        2.5775852504
 H         -2.3752136516        3.9052484615        1.1768896764
 H         -0.8937689931        2.3911625378       -1.2886281603
 H         -1.8466847132       -1.0118481313        1.8377264533
