  48
        -65.80822052
 Si         3.5711565847        0.0379834570       -0.0711783719
 C          3.5122993972        1.6111137433        1.0055270196
 H          2.8365087491        1.4826375894        1.8476259323
 H          3.1646320058        2.4663750701        0.4330000905
 H          4.4903284690        1.8566895249        1.4069252448
 C          4.0293611902       -1.5003320148        0.9485899001
 H          3.7652812354       -1.3907430716        1.9969349336
 H          5.0920710527       -1.7144462552        0.9009762270
 H          3.4915911609       -2.3636112108        0.5666497117
 C          4.6803709828        0.2774231100       -1.5961364460
 O          0.8762718993       -2.8636789211       -0.1296913211
 H          4.3837190718        1.1442293658       -2.1798697076
 H          4.6293406397       -0.5898568730       -2.2472538167
 H          5.7175676743        0.4127758485       -1.3077596489
 C         -0.0951692602       -2.1425010414       -0.0462656105
 C         -1.4769262442       -2.5814321390        0.4283706022
 H         -1.9858745674       -3.0763624674       -0.4004350417
 H         -1.3978872344       -3.2980148442        1.2450096221
 C         -0.1853381122       -0.7239308593       -0.3189549172
 C          0.8559777562        0.1150533430       -0.5242038966
 O          2.0780997443       -0.3157446218       -0.7090714350
 C         -2.1162167274        1.7849941100        1.3717819567
 C         -1.6099783985       -0.2387895207       -0.1461748590
 C         -2.1875836816       -1.2847791924        0.8306421081
 C         -2.3365910267       -0.2818227287       -1.5068496602
 O          0.7536774964        1.4599080440       -0.5580601820
 C         -3.7131154847       -1.3729103764        0.8573340391
 C         -3.8477608572       -0.1968193361       -1.3382126417
 H         -2.0814154896       -1.2167731157       -2.0093437047
 H         -1.9769793817        0.5346084014       -2.1358517338
 C         -4.3382418369       -1.3934147526       -0.5328280605
 H         -4.1062177775       -0.5085216421        1.3965886799
 H         -4.0044058383       -2.2679062158        1.4119321398
 H         -4.3261050188       -0.1818486289       -2.3196068416
 H         -4.1078496653        0.7283722325       -0.8186029594
 H         -5.4259177555       -1.3683088830       -0.4409581676
 H         -4.0722056013       -2.3145267874       -1.0549187686
 C         -1.6272768241        3.1925030297        1.5412907252
 C         -1.5204838366        1.1573249612        0.3690429884
 H         -2.8838812748        1.3818965919        2.0077048900
 C         -0.5160709821        2.0594462530       -0.3117043952
 C         -0.3707368765        3.2434843612        0.6584273940
 H         -0.2586579231        4.1914791944        0.1375924342
 H          0.5223347813        3.0745483321        1.2600768650
 H         -1.4140535841        3.4291540718        2.5843853805
 H         -2.3848248981        3.8985590516        1.1901655041
 H         -0.9032398863        2.3914253572       -1.2870159598
 H         -1.8447315623       -1.0166140766        1.8369909345
