  48
        -65.80558116
 Si         3.5565341131       -0.0055240415       -0.1818034997
 C          3.7684805409        0.6790896271       -1.9476677972
 H          3.0704126624        1.4875587380       -2.1454195884
 H          3.5918298450       -0.0964199144       -2.6881846533
 H          4.7712420870        1.0621571606       -2.1069940929
 C          3.7532918493        1.3900810755        1.1034724947
 H          3.3983097806        1.0724307672        2.0805007542
 H          3.1951912734        2.2776178676        0.8191660993
 H          4.7937400745        1.6792214252        1.2120410031
 C          4.6978401742       -1.4751824015        0.1753822469
 O          0.5142319855       -3.0827656597        0.7124527674
 H          4.5309944288       -2.2815542617       -0.5313662602
 H          4.5216952650       -1.8767011078        1.1681010860
 H          5.7408855112       -1.1842544303        0.1116101501
 C         -0.3741234633       -2.2890805905        0.4920799547
 C         -1.8597044523       -2.5663285149        0.6942883885
 H         -2.1835591059       -3.2283775824       -0.1124988984
 H         -2.0255755232       -3.0938470174        1.6327191368
 C         -0.2625871729       -0.9297420458        0.0119871352
 C          0.8778053240       -0.2170057762       -0.1427566579
 O          2.0689443494       -0.7462835247       -0.0313527592
 C         -2.0405461739        1.8035351716        1.2939457557
 C         -1.6243665247       -0.2931390057       -0.1683644365
 C         -2.5781656498       -1.2130313992        0.6271504476
 C         -2.0424790299       -0.2945750879       -1.6485087967
 O          0.9014601674        1.1024688153       -0.4311020806
 C         -3.9689193062       -1.3023568653       -0.0115767232
 C         -3.4181543278        0.3536500701       -1.8283402337
 H         -2.0653893560       -1.3304877764       -1.9891057143
 H         -1.2985748264        0.2264196189       -2.2532416968
 C         -4.3568655832        0.0223152078       -0.6605445481
 H         -4.7035825615       -1.5757015097        0.7479094345
 H         -3.9831830638       -2.0839607396       -0.7736819009
 H         -3.8500758995        0.0024181500       -2.7673547642
 H         -3.3083689780        1.4372096360       -1.9028266894
 H         -4.3044706423        0.8117385800        0.0892146902
 H         -5.3874756207       -0.0265516008       -1.0159859416
 C         -1.3962386432        3.1419338409        1.5026848240
 C         -1.4510800370        1.1013498909        0.3374084568
 H         -2.8983312546        1.5062374115        1.8705601119
 C         -0.2895717207        1.8683142247       -0.2528749675
 C         -0.0632256622        3.0112199855        0.7514340034
 H          0.2444922377        3.9348169758        0.2661648246
 H          0.7247693849        2.7022372147        1.4389475047
 H         -1.2591515597        3.3714133632        2.5599523888
 H         -2.0166961645        3.9314328213        1.0692503032
 H         -0.5535773573        2.2626031786       -1.2448585111
 H         -2.6714352248       -0.8125155686        1.6399120275
