  48
        -65.80540173
 Si         3.3342941575        0.9137034311       -0.1602516544
 C          4.0377007753        2.5093493558       -0.9450099095
 H          5.1128201901        2.4372033460       -1.0712764521
 H          3.8389840820        3.3750274370       -0.3212011592
 H          3.6059494957        2.7084996110       -1.9214043404
 C          4.1747897981        0.6992937717        1.5299329821
 H          3.8914855628       -0.2284769694        2.0116130338
 H          3.9117237397        1.5186393903        2.1931068355
 H          5.2536426955        0.7045477695        1.4137210734
 C          3.5260915498       -0.4717577703       -1.4548947292
 O          2.1386039038       -1.3455661803        0.9233487916
 H          3.6411715181       -1.4424831212       -0.9867395141
 H          4.3918263025       -0.2995409281       -2.0867186249
 H          2.6508498565       -0.5192997233       -2.0979524196
 C          0.9524244333       -1.3812893086        0.6428989273
 C          0.0460943123       -2.5802662066        0.8711639707
 H          0.2987552079       -3.3345880649        0.1216114533
 H          0.2298258055       -3.0216499320        1.8500134767
 C          0.1600632926       -0.3386099584        0.0695251159
 C          0.5447969648        0.9534609560       -0.1029745575
 O          1.7508965698        1.4267182824        0.0422287955
 C         -3.0536161702        0.5376632581        1.1757884823
 C         -1.2688913864       -0.7888212347       -0.1527818879
 C         -1.3926831485       -2.0768630437        0.6948246548
 C         -1.5134498622       -1.1318125198       -1.6319943362
 O         -0.3110289308        1.9344734816       -0.4460591165
 C         -2.3171480034       -3.1135489674        0.0474289708
 C         -2.9566184850       -1.5919185327       -1.8557399453
 H         -0.8171036897       -1.9235071606       -1.9125607167
 H         -1.2918613316       -0.2692379501       -2.2624296980
 C         -3.4718539746       -2.4314061892       -0.6789780158
 H         -2.7034537296       -3.7881364971        0.8135725077
 H         -1.7599769024       -3.7202322063       -0.6691534756
 H         -2.9988613743       -2.1739627765       -2.7782834836
 H         -3.6038157123       -0.7227724080       -1.9860677528
 H         -4.0023011253       -1.7909317764        0.0256066358
 H         -4.1782521937       -3.1809682390       -1.0393081197
 C         -3.4794264684        1.9689761197        1.3143625577
 C         -2.0978029475        0.3785576378        0.2724001937
 H         -3.5222643015       -0.2372101307        1.7562883061
 C         -1.7149964579        1.7034116426       -0.3456494072
 C         -2.3740035375        2.7413057890        0.5789979916
 H         -2.7498654175        3.6019438319        0.0309657831
 H         -1.6188759477        3.0871522070        1.2852033511
 H         -3.5743742730        2.2681772246        2.3587635744
 H         -4.4511986876        2.1211922607        0.8363478034
 H         -2.1109243572        1.7796695650       -1.3686004842
 H         -1.7917380913       -1.8014788515        1.6743426820
