  48
        -65.80518700
 Si         3.0972654675        1.1831770131       -0.0585309261
 C          3.7716249725        1.5561757425        1.6774195282
 H          3.4909184480        0.7979612744        2.3978914516
 H          3.3995053173        2.5132860568        2.0317894625
 H          4.8547873813        1.6143691700        1.6511280185
 C          3.4712103131       -0.5102456837       -0.8511942560
 H          2.6474980388       -0.8256401183       -1.4868318235
 H          3.6184718942       -1.2791415465       -0.1016013424
 H          4.3648825024       -0.4662173066       -1.4658670116
 C          3.8186130353        2.5076129069       -1.2353532062
 O          1.8923877372       -0.6921945841        1.5427529037
 H          3.4816194715        2.3725599663       -2.2589638568
 H          4.9029256839        2.4716022746       -1.2405205915
 H          3.5261347818        3.5066765562       -0.9282081640
 C          0.7518504113       -0.9146653212        1.1706249306
 C         -0.1379656718       -2.0101702821        1.7322808779
 H          0.2785105529       -2.9793053040        1.4584407992
 H         -0.1369036586       -1.9591125350        2.8216578256
 C          0.0028329588       -0.1948223348        0.1882087376
 C          0.3351645225        1.0262450210       -0.3075353727
 O          1.4820520628        1.6283958301       -0.1574695971
 C         -3.4518332300        0.5884223669        0.4630107090
 C         -1.3485053211       -0.8272951530       -0.0617711878
 C         -1.5357396482       -1.7887854600        1.1359915866
 C         -1.3647967800       -1.5907279619       -1.4061307455
 O         -0.5169410895        1.7945363931       -1.0125148797
 C         -2.2363517755       -3.0799203925        0.7212622790
 C         -0.6690820094       -2.9378941098       -1.2741211803
 H         -0.8633640210       -0.9864790611       -2.1648499839
 H         -2.3992779064       -1.7407325297       -1.7241371129
 C         -1.4569317078       -3.8651096165       -0.3420101477
 H         -3.2213177612       -2.8157814486        0.3309198116
 H         -2.3927121064       -3.7080962475        1.6003501340
 H          0.3386275550       -2.7712249871       -0.8902237985
 H         -0.5704081520       -3.4009333504       -2.2578082711
 H         -2.1667893205       -4.4554507373       -0.9245658644
 H         -0.7730472199       -4.5705923122        0.1326333586
 C         -3.9831871082        1.9408120527        0.0877530189
 C         -2.3064821817        0.3145037147       -0.1428269044
 H         -3.9891427896       -0.0573184432        1.1347323940
 C         -1.8970959972        1.4442699944       -1.0585577155
 C         -2.7848411249        2.6127131916       -0.6003074628
 H         -3.0748327357        3.2604475394       -1.4239724386
 H         -2.2170707302        3.2030600886        0.1192608132
 H         -4.3334979286        2.4993949169        0.9562392106
 H         -4.8249533411        1.8370770955       -0.6025034441
 H         -2.1108025651        1.1762129633       -2.1041402465
 H         -2.1542790713       -1.2837379513        1.8833049598
