  48
        -65.80511067
 Si         3.4465971827       -0.6438292997       -0.1036735560
 C          3.9478369998        0.8369884455        0.9889486740
 H          5.0268844353        0.9116659052        1.0783587746
 H          3.5423247679        0.7349590035        1.9922537888
 H          3.5875179840        1.7761816673        0.5789776406
 C          4.2398187530       -2.2646589488        0.4743793050
 H          3.8984576174       -3.1030584877       -0.1240758286
 H          3.9832115629       -2.4811087691        1.5063710682
 H          5.3210420662       -2.2183711404        0.4001775469
 C          3.7994289550       -0.2690269677       -1.9387469144
 O         -0.1655928735       -2.8088562207        1.1662930447
 H          3.2972351920        0.6384151809       -2.2617389168
 H          3.4539732629       -1.0802215418       -2.5740760409
 H          4.8617536926       -0.1408524687       -2.1196843635
 C         -0.8573386346       -1.8564526043        0.8782184330
 C         -2.3231798802       -1.7022821853        1.2649818413
 H         -2.9047091140       -2.4706006740        0.7567445115
 H         -2.4321970125       -1.8778034167        2.3358226096
 C         -0.4771725735       -0.6614049332        0.1561647083
 C          0.7882933743       -0.2554042797       -0.0996300741
 O          1.8338725918       -1.0148922189        0.1069883863
 C         -1.6230684718        2.6285866208        0.8529902737
 C         -1.6686757153        0.2291690594       -0.1182457474
 C         -2.7506701449       -0.2853694476        0.8589768082
 C         -2.1322413071        0.1091319354       -1.5889278347
 O          1.1050731932        0.9688870623       -0.5769668759
 C         -4.1457277466       -0.2179905908        0.2428269209
 C         -2.9579922480       -1.1512949663       -1.8009205860
 H         -1.2546494095        0.0902422233       -2.2381036062
 H         -2.7284453466        0.9867642495       -1.8512138491
 C         -4.2774110583       -1.0721715262       -1.0251001084
 H         -4.3561713204        0.8264512460        0.0029217901
 H         -4.8851183622       -0.5379613742        0.9795561574
 H         -2.3686671136       -2.0093137855       -1.4750504348
 H         -3.1635198195       -1.2824725830       -2.8651006912
 H         -5.0509423777       -0.6333488537       -1.6584838845
 H         -4.6103604715       -2.0795860419       -0.7705636224
 C         -0.7019206565        3.8127219640        0.8053474244
 C         -1.1820797753        1.6208214799        0.1152644234
 H         -2.5375803769        2.6531562017        1.4183198265
 C          0.1089134242        1.9878611389       -0.5791325769
 C          0.5801800795        3.2342810402        0.1873195950
 H          1.1033385680        3.9426359554       -0.4510320769
 H          1.2605151321        2.9075665477        0.9745003450
 H         -0.5324850436        4.2424831478        1.7930852070
 H         -1.1255335453        4.5954387919        0.1698889377
 H         -0.0878284281        2.2277191946       -1.6349525645
 H         -2.7340472937        0.3502782300        1.7490848977
