  48
        -65.81043832
 Si         3.5780308634       -0.2171953389       -0.0097385901
 C          4.5955542324       -1.7641333453        0.3934455445
 H          4.5234932659       -2.5011429451       -0.3999351167
 H          4.2417960949       -2.2360738361        1.3042842202
 H          5.6440028444       -1.5191866376        0.5251854767
 C          3.9678433672        0.4760773357       -1.7419402251
 H          5.0142099907        0.7505757280       -1.8295191104
 H          3.3746220449        1.3591833335       -1.9605656651
 H          3.7567565629       -0.2606224611       -2.5124402738
 C          3.7631010252        1.1446124647        1.3125230110
 O          0.3048416846       -2.9792082166        1.0113123351
 H          3.2162444037        2.0427204264        1.0394178452
 H          4.8024839151        1.4244087559        1.4505076671
 H          3.3835968366        0.8053757395        2.2727891995
 C         -0.5106722485       -2.1227245312        0.7503439724
 C         -1.9975857175       -2.1947652411        1.0880265315
 H         -2.4857833078       -2.8472597150        0.3623090405
 H         -2.1485081984       -2.6276249980        2.0762084159
 C         -0.2974731284       -0.8453054312        0.0989708298
 C          0.8931379771       -0.2539276526       -0.1473674083
 O          2.0385582905       -0.8558162062        0.0526706282
 C         -1.9568212449        2.2985423592        0.6223288880
 C         -1.6218958544       -0.1460502843       -0.1330727220
 C         -2.5031412035       -0.7526515860        0.9787306475
 C         -2.1584170656       -0.5144690208       -1.5325991515
 O          1.0321478102        1.0124500983       -0.5962795940
 C         -4.0091493672       -0.6187370730        0.7554692758
 C         -3.6372047733       -0.1775537906       -1.6716626416
 H         -2.0153971549       -1.5850592059       -1.6906589268
 H         -1.5758124584        0.0078173798       -2.2938501480
 C         -4.4411227831       -0.9845862747       -0.6599768156
 H         -4.3032166603        0.4153707595        0.9466764033
 H         -4.5297815810       -1.2488896442        1.4802075093
 H         -3.9715870353       -0.4052135559       -2.6858658398
 H         -3.7887060970        0.8898994473       -1.4948657563
 H         -5.5078612215       -0.7830343323       -0.7764563858
 H         -4.2848850647       -2.0497587058       -0.8408907755
 C         -1.2523122622        3.6127078939        0.4610236805
 C         -1.3559691349        1.3169212364       -0.0332711986
 H         -2.8593552669        2.2176570542        1.2009548986
 C         -0.1285423561        1.8239583810       -0.7556855455
 C          0.1009902750        3.2181532612       -0.1498999510
 H          0.4594122255        3.9349271974       -0.8851283621
 H          0.8535940024        3.1219279786        0.6330816163
 H         -1.1438870036        4.1393453449        1.4097815221
 H         -1.8158785722        4.2611920973       -0.2154887498
 H         -0.3231377306        1.8894367614       -1.8371771954
 H         -2.2502330874       -0.2387002484        1.9135309309
