  48
        -65.80502970
 Si         3.4517865397       -0.6128133805        0.1552743383
 C          4.2193254971       -2.1459315811        0.9622477144
 H          4.0497628080       -3.0340429043        0.3619359281
 H          3.7842812162       -2.3299052081        1.9392141097
 H          5.2905349204       -2.0282311326        1.0858891856
 C          3.9558215451       -0.4230204291       -1.6729487473
 H          3.4887548146        0.4464228866       -2.1263516224
 H          3.6593129333       -1.2941018010       -2.2510699456
 H          5.0306061589       -0.3126155499       -1.7755622027
 C          3.8292374876        0.9880011684        1.1211087411
 O         -0.1575895467       -2.4751221552        1.7484255437
 H          4.8959437678        1.1143666778        1.2756130595
 H          3.3554000852        0.9706489606        2.0991303151
 H          3.4696548444        1.8671621600        0.5936914969
 C         -0.8506364555       -1.6161110143        1.2479032150
 C         -2.3108063767       -1.3651029202        1.6043751316
 H         -2.9018541653       -2.2285941618        1.3015064929
 H         -2.4057804868       -1.2794068907        2.6874701748
 C         -0.4752577371       -0.6272470079        0.2603467625
 C          0.7913068930       -0.2913118347       -0.0788215430
 O          1.8331280898       -0.9893366436        0.2955785114
 C         -1.6289950772        2.7420071192        0.1367973240
 C         -1.6678124006        0.1769830040       -0.2069288547
 C         -2.7387193013       -0.0828780036        0.8776657357
 C         -2.1500393372       -0.2916105285       -1.6001304658
 O          1.1149953333        0.7965205273       -0.8123138754
 C         -4.1415668239       -0.1551262885        0.2802023212
 C         -2.9839348618       -1.5599646683       -1.4931984231
 H         -1.2805185689       -0.4728341665       -2.2349827132
 H         -2.7455729064        0.5010816875       -2.0599999927
 C         -4.2931903968       -1.2870993824       -0.7445932382
 H         -4.3511966179        0.8028927167       -0.2003454540
 H         -4.8722459972       -0.2843374677        1.0809975253
 H         -2.3943071123       -2.3188156849       -0.9773652061
 H         -3.2035374466       -1.9415657642       -2.4922378702
 H         -5.0723762375       -1.0068185538       -1.4562028591
 H         -4.6278841495       -2.2016049088       -0.2524596992
 C         -0.7151450933        3.8816823646       -0.2076481827
 C         -1.1810179290        1.5833019914       -0.3223993862
 H         -2.5452479714        2.9027780620        0.6764585233
 C          0.1103761550        1.7696875675       -1.0844602158
 C          0.5699879551        3.1755186884       -0.6660599639
 H          1.0827784741        3.7015487206       -1.4680416340
 H          1.2575962289        3.0678198141        0.1734222204
 H         -0.5468731332        4.5455867020        0.6408513363
 H         -1.1452406326        4.4784011691       -1.0168485506
 H         -0.0832108301        1.7250609247       -2.1669407990
 H         -2.7077320175        0.7466702180        1.5902027598
