  48
        -65.80411821
 Si         3.4530934170        0.2688080545        0.0021108324
 C          3.8201961534        2.1412666242        0.0214000308
 H          4.7245526257        2.3649770199        0.5780417645
 H          3.0075849669        2.7044954989        0.4724193011
 H          3.9528361324        2.5218822297       -0.9873696174
 C          3.1506668713       -0.3727439926        1.7693721872
 H          2.3801835120        0.2019418343        2.2787447000
 H          4.0462404746       -0.3360643386        2.3810229682
 H          2.8149343385       -1.4052021645        1.7280961589
 C          4.7456126137       -0.7283342876       -0.9569424256
 O          1.2952854109       -2.6653923336       -0.0709415309
 H          4.8652058625       -0.3593561503       -1.9708922827
 H          4.4470351729       -1.7698900475       -1.0175051723
 H          5.7141637902       -0.6830059240       -0.4706826593
 C          0.2156367695       -2.1112145598       -0.0659790848
 C         -1.0926217541       -2.7571599997        0.3716253040
 H         -1.4232647069       -3.4098470678       -0.4401471559
 H         -0.9389167457       -3.3830294771        1.2498320105
 C         -0.0867435809       -0.7425502262       -0.4113522506
 C          0.8231754677        0.2259939609       -0.6683410755
 O          2.0886062013       -0.0315837416       -0.9017152749
 C         -2.1017637964        1.3780305279        1.5339691934
 C         -1.5575899287       -0.4345221307       -0.2337514053
 C         -2.0903585042       -1.6164579130        0.6090456178
 C         -2.2847490261       -0.4126756228       -1.5886941050
 O          0.5323351336        1.5406210716       -0.7223167634
 C         -3.5300562861       -1.9928013648        0.2416385739
 C         -3.7729670793       -0.1022000955       -1.4065951749
 H         -2.1569352271       -1.3912054675       -2.0532592945
 H         -1.8255927585        0.3209205939       -2.2529908960
 C         -4.3371680874       -0.7554041784       -0.1376423354
 H         -4.0011187896       -2.5023471987        1.0841642252
 H         -3.5338456592       -2.6866342879       -0.6012179242
 H         -4.3141326607       -0.4598186937       -2.2845605205
 H         -3.9191424230        0.9779909981       -1.3485969366
 H         -4.3034324122       -0.0449596522        0.6882763707
 H         -5.3820321172       -1.0284273861       -0.2942604742
 C         -1.7380271443        2.8100082078        1.7914451607
 C         -1.5791669502        0.9148087135        0.4080583137
 H         -2.7414519264        0.8408214637        2.2115731399
 C         -0.7511265977        1.9779584582       -0.2778598707
 C         -0.6026387860        3.0741112038        0.7914470402
 H         -0.6368977650        4.0737332307        0.3647128557
 H          0.3653670966        2.9408468711        1.2756549108
 H         -1.4316830727        2.9760081309        2.8249815480
 H         -2.5964026749        3.4577125346        1.5926101481
 H         -1.2752504461        2.3601282637       -1.1655443948
 H         -2.0513104957       -1.3282424136        1.6628529082
