  48
        -65.80381354
 Si         3.3757768214       -0.3293837198        0.0989783713
 C          2.9091401411       -0.2226065306        1.9432101707
 H          3.7798302494       -0.1784022052        2.5892203425
 H          2.3289234153       -1.0968622552        2.2251589538
 H          2.3005221670        0.6549593226        2.1499433666
 C          4.2985789375       -1.9182653125       -0.3557368673
 H          5.2336277247       -2.0009225675        0.1877803618
 H          4.5258895627       -1.9581297299       -1.4164686109
 H          3.6883821723       -2.7834866518       -0.1165302140
 C          4.2744460236        1.2583892137       -0.4571869818
 O          0.6569678003       -2.6722629861        0.5073380746
 H          5.1978681292        1.4082761186        0.0927766008
 H          3.6547083860        2.1392279955       -0.3117361286
 H          4.5258578588        1.2122974377       -1.5129985999
 C         -0.2729676746       -1.8969724736        0.4180758538
 C         -1.6351556574       -2.1010361606        1.0666297090
 H         -2.1469318319       -2.9147154554        0.5535540144
 H         -1.5037379235       -2.4108055635        2.1039302408
 C         -0.2977851649       -0.6079923355       -0.2331672725
 C          0.8015732102        0.0668316413       -0.6434188911
 O          1.9727070997       -0.5088164242       -0.7784244502
 C         -1.8530076194        2.2991342080        1.1111717086
 C         -1.6580042141        0.0453995034       -0.1454810049
 C         -2.3927360530       -0.7719441380        0.9428671272
 C         -2.4024764663       -0.0170195427       -1.4990998095
 O          0.8208120278        1.3825332936       -0.9395230455
 C         -3.8755824113       -0.9381779101        0.6211930118
 C         -3.0099100050       -1.3939088398       -1.7249750183
 H         -1.6997476891        0.2134143751       -2.3020536416
 H         -3.1910431781        0.7394686684       -1.5117369509
 C         -4.1179355472       -1.6736342186       -0.7033969955
 H         -4.3218115286        0.0573442851        0.5726598120
 H         -4.3666865549       -1.4756701343        1.4347482182
 H         -2.2160659317       -2.1379671185       -1.6479686545
 H         -3.4167106103       -1.4554796769       -2.7361404259
 H         -5.0799634086       -1.3507703768       -1.1061594716
 H         -4.1914659130       -2.7487108461       -0.5317458367
 C         -1.1943501378        3.6466815320        1.0618306568
 C         -1.3857762778        1.4765466177        0.1842159015
 H         -2.6305719359        2.0830218153        1.8222085626
 C         -0.3409072741        2.1612876739       -0.6666180052
 C          0.0189482325        3.4144847861        0.1480893632
 H          0.2443005196        4.2694633617       -0.4848314416
 H          0.9027753089        3.1851256573        0.7445265599
 H         -0.9094290421        4.0017162622        2.0528280996
 H         -1.8765885252        4.3833206514        0.6287380305
 H         -0.7720584225        2.4350839449       -1.6411641165
 H         -2.3020914592       -0.2335977324        1.8909829235
