  48
        -65.80379658
 Si         3.3565253930       -0.3012425707        0.1206230209
 C          2.8207328649       -0.1047688980        1.9386095201
 H          2.2359792695       -0.9675766877        2.2447768330
 H          2.1993668226        0.7774611909        2.0759221152
 H          3.6662861295       -0.0199451160        2.6132955162
 C          4.2368427539       -1.9386046048       -0.2347077769
 H          4.5224436160       -2.0195486032       -1.2788578542
 H          3.5759783083       -2.7691806476       -0.0071682952
 H          5.1349663399       -2.0431933784        0.3644175667
 C          4.3307063095        1.2339677211       -0.4555870181
 O          0.7370174563       -2.6267748335        0.5107814267
 H          5.2408047024        1.3684751122        0.1198088453
 H          3.7399177917        2.1410384247       -0.3589366139
 H          4.6140889044        1.1435924950       -1.5002799700
 C         -0.2147115548       -1.8782786358        0.4175460041
 C         -1.5682188550       -2.1141703488        1.0729236007
 H         -2.0615799134       -2.9418794411        0.5641746347
 H         -1.4253343673       -2.4172505401        2.1107003318
 C         -0.2770900533       -0.5971614556       -0.2452771409
 C          0.8006431992        0.1007250401       -0.6740708063
 O          1.9859390493       -0.4443348411       -0.8145256405
 C         -1.8737197613        2.2752123687        1.1067185734
 C         -1.6519507486        0.0241170256       -0.1506710419
 C         -2.3588103522       -0.8046572100        0.9474232009
 C         -2.4048767295       -0.0620191605       -1.4980433773
 O          0.7824893986        1.4121643593       -0.9868127183
 C         -3.8394716201       -1.0079275152        0.6373272873
 C         -2.9812843803       -1.4539338783       -1.7133878619
 H         -1.7137648075        0.1809634141       -2.3073640714
 H         -3.2110751241        0.6756838637       -1.5081846057
 C         -4.0734863074       -1.7566941561       -0.6812368593
 H         -4.3092660866       -0.0234326708        0.5862309270
 H         -4.3122539717       -1.5520010914        1.4573376157
 H         -2.1692018884       -2.1785354607       -1.6408734497
 H         -3.3952169397       -1.5288818971       -2.7207434863
 H         -5.0468691098       -1.4612846179       -1.0776679510
 H         -4.1175142496       -2.8323291034       -0.5032070003
 C         -1.2433334637        3.6356280505        1.0465444686
 C         -1.4074668519        1.4622758225        0.1708085864
 H         -2.6334524306        2.0433422941        1.8319335772
 C         -0.3917317272        2.1670013244       -0.6985436591
 C         -0.0453903728        3.4304840602        0.1063451805
 H          0.1445360271        4.2892340170       -0.5330459048
 H          0.8573671300        3.2248250305        0.6826862251
 H         -0.9441097626        3.9932511528        2.0324407242
 H         -1.9492703920        4.3599530683        0.6311551042
 H         -0.8429889831        2.4277097510       -1.6673738374
 H         -2.2742338058       -0.2594099514        1.8921152468
