  48
        -65.80379423
 Si         3.3463527942       -0.3160655301        0.1775128364
 C          4.1945436733       -2.0079555607        0.1776965189
 H          3.5224496263       -2.7575364344        0.5835404330
 H          5.0971989296       -1.9976607060        0.7791285458
 H          4.4675013586       -2.3168015498       -0.8265866108
 C          4.3591886650        1.0439583141       -0.6961627818
 H          4.6273160988        0.7401296233       -1.7039472385
 H          5.2796212862        1.2595158639       -0.1634259317
 H          3.7983448652        1.9713583298       -0.7772297490
 C          2.8115545078        0.2688754215        1.9100833412
 O          0.7454204952       -2.4269417465        1.0870818334
 H          2.1949119616        1.1633249705        1.8539303017
 H          3.6584166658        0.4925803658        2.5505691117
 H          2.2230255919       -0.5046694007        2.3948660535
 C         -0.2055249543       -1.7140542864        0.8367416513
 C         -1.5482046113       -1.7816569084        1.5506177603
 H         -2.0518835183       -2.7030058462        1.2595630854
 H         -1.3880890387       -1.8324849032        2.6281487637
 C         -0.2753777904       -0.6230080991       -0.1059024934
 C          0.7963074978       -0.0496904639       -0.7021500194
 O          1.9807542674       -0.6141476758       -0.7276754052
 C         -1.8544604157        2.4944656937        0.5468581787
 C         -1.6487117060        0.0080922451       -0.1410568543
 C         -2.3381190581       -0.5337812931        1.1329722166
 C         -2.4229814099       -0.3923297134       -1.4178523061
 O          0.7725861851        1.1494056504       -1.3177882161
 C         -3.8244095428       -0.7953374538        0.9044112548
 C         -3.0069590237       -1.7915206311       -1.2867679418
 H         -1.7441592883       -0.3535826034       -2.2718735193
 H         -3.2272646383        0.3268639329       -1.5915955939
 C         -4.0841460798       -1.8316348168       -0.1969878091
 H         -4.2932397137        0.1524289978        0.6315176937
 H         -4.2831154295       -1.1285646985        1.8374095335
 H         -2.1962555196       -2.4835468204       -1.0552296462
 H         -3.4368542922       -2.1017866250       -2.2410497692
 H         -5.0617916250       -1.6283094857       -0.6383791438
 H         -4.1321984880       -2.8345532519        0.2302256297
 C         -1.2255740959        3.7995553837        0.1555055569
 C         -1.4001806473        1.4806015998       -0.1741711134
 H         -2.6042989620        2.4442807495        1.3163629572
 C         -0.3969291254        1.9552004506       -1.2000611876
 C         -0.0390482934        3.3722066798       -0.7223686651
 H          0.1447309505        4.0536760609       -1.5494567786
 H          0.8699787520        3.3052368353       -0.1235479599
 H         -0.9146791769        4.3821060264        1.0234919279
 H         -1.9367151973        4.4050205201       -0.4130463089
 H         -0.8624306346        1.9807630450       -2.1965454333
 H         -2.2355677231        0.2185191101        1.9206928072
