  48
        -65.80372397
 Si         3.3851567163       -0.3064189390        0.0117264459
 C          3.0334917973       -0.3075842220        1.8835692155
 H          3.9422773354       -0.2563459096        2.4743422505
 H          2.5086357809       -1.2191804370        2.1551392072
 H          2.4044098120        0.5312348584        2.1734328456
 C          4.3993716810       -1.7957685767       -0.5695609577
 H          4.5532504552       -1.7810684492       -1.6440987976
 H          3.8856251364       -2.7190696905       -0.3220535026
 H          5.3744394628       -1.8144190194       -0.0946952882
 C          4.1337246725        1.3643378490       -0.5253558580
 O          0.6901797241       -2.6106213622        0.7492300552
 H          4.3055903075        1.3868600051       -1.5977269828
 H          5.0845445653        1.5512690489       -0.0367457862
 H          3.4722227337        2.1934582208       -0.2888558898
 C         -0.2426715502       -1.8437670830        0.6253163912
 C         -1.5733627827       -1.9765455788        1.3532443377
 H         -2.1023468699       -2.8439787889        0.9597686512
 H         -1.3920388003       -2.1672093317        2.4116082534
 C         -0.2989552280       -0.6275973752       -0.1522322167
 C          0.7777240477        0.0064825106       -0.6727714865
 O          1.9514360855       -0.5691111212       -0.7900728981
 C         -1.8409604645        2.4039815073        0.9135161642
 C         -1.6618886484        0.0232488572       -0.0845722422
 C         -2.3448639710       -0.6710251399        1.1168515485
 C         -2.4576260890       -0.1965386472       -1.3921503374
 O          0.7708401216        1.2814001536       -1.1126260068
 C         -3.8386028760       -0.8746559886        0.8779586775
 C         -3.0651037737       -1.5911521451       -1.4349489608
 H         -1.7878514087       -0.0585512750       -2.2430577991
 H         -3.2509359713        0.5519790139       -1.4607655749
 C         -4.1306854222       -1.7538459981       -0.3451853712
 H         -4.2925685367        0.1085500334        0.7373169201
 H         -4.2923611118       -1.3186487468        1.7661619278
 H         -2.2645860608       -2.3205833613       -1.3054204545
 H         -3.5110539621       -1.7682791181       -2.4155083193
 H         -5.1090773325       -1.4774161413       -0.7430543182
 H         -4.1933524422       -2.8028583594       -0.0514337105
 C         -1.2030720077        3.7430446434        0.6851035272
 C         -1.3957159452        1.4845427224        0.0705724490
 H         -2.5898155509        2.2637672090        1.6727578419
 C         -0.3906931322        2.0760033917       -0.8906510688
 C         -0.0196248823        3.4183191897       -0.2394543553
 H          0.1721933188        4.1963886884       -0.9743657031
 H          0.8870945256        3.2675117079        0.3474563025
 H         -0.8882286317        4.2132197033        1.6173469395
 H         -1.9102530619        4.4179572212        0.1951731258
 H         -0.8588879188        2.2309641463       -1.8742185928
 H         -2.2183384403       -0.0311409591        1.9952728196
