  48
        -65.80169313
 Si         3.3488688819        0.8903817601       -0.2064409275
 C          3.5598603105       -0.6754173534       -1.2721250040
 H          4.4996267120       -0.6529443873       -1.8148556082
 H          2.7589800432       -0.7535648307       -2.0033259737
 H          3.5442111863       -1.5753366547       -0.6683365408
 C          4.0976505592        2.3472970459       -1.1919150966
 H          3.7006429000        2.4036919767       -2.2011698920
 H          5.1753652568        2.2495759228       -1.2692154592
 H          3.8888934802        3.2966315137       -0.7089908382
 C          4.1337465478        0.9042440116        1.5232083573
 O          2.0668730798       -1.1918506849        1.1932977729
 H          5.2156366935        0.8754986889        1.4444337980
 H          3.8164034520        0.0579873586        2.1202317054
 H          3.8668242076        1.8125667552        2.0561965457
 C          0.8797248434       -1.2191042000        0.9218151520
 C         -0.1001734652       -2.2872769946        1.3850734402
 H          0.0053323411       -3.1552651598        0.7311410293
 H          0.1140577949       -2.6052032113        2.4047379270
 C          0.1319247069       -0.2715880536        0.1467095500
 C          0.5565573735        0.9537194828       -0.2524012930
 O          1.7663798805        1.4295601293       -0.1263063710
 C         -3.2404894365        0.8253012014        0.6058700819
 C         -1.2989823340       -0.7500738429       -0.0241409801
 C         -1.4780105622       -1.6333866537        1.2288733639
 C         -1.4217324333       -1.5414293549       -1.3565490569
 O         -0.2511519375        1.8748247925       -0.8116578071
 C         -2.6585532469       -2.6152344674        1.1953390246
 C         -2.2116017692       -2.8457470474       -1.2347338561
 H         -0.4207496738       -1.7565819212       -1.7361863129
 H         -1.9145313337       -0.9008692450       -2.0905872371
 C         -3.3028139847       -2.7043206843       -0.1848784713
 H         -3.4116279205       -2.3201708408        1.9279164898
 H         -2.3018973531       -3.6066490492        1.4828631022
 H         -1.5516685918       -3.6673574873       -0.9498879185
 H         -2.6432353687       -3.0952702961       -2.2058358991
 H         -3.8845202478       -1.8041309713       -0.3901244150
 H         -3.9795101273       -3.5600580925       -0.2172558348
 C         -3.6733980494        2.2273007874        0.2977722317
 C         -2.1434328485        0.4786034024       -0.0499986256
 H         -3.8034088490        0.1988979174        1.2746531800
 C         -1.6472216690        1.6112430929       -0.9175698067
 C         -2.4624921904        2.8237780794       -0.4373238043
 H         -2.7468797607        3.4791943466       -1.2569160913
 H         -1.8388613120        3.3903497080        0.2540670381
 H         -3.9283178378        2.7835413909        1.2004782495
 H         -4.5584939632        2.2155855027       -0.3442688748
 H         -1.8415546136        1.3959326690       -1.9794897914
 H         -1.6081211213       -0.9496329159        2.0746582609
