  48
        -65.80920055
 Si         3.3984733591        0.5272046767        0.0986157955
 C          4.2072507612        2.2562312526        0.1532623288
 H          5.1951842134        2.2108495022        0.5992226213
 H          3.6183138213        2.9634542511        0.7302593646
 H          4.3171775427        2.6657303680       -0.8460439003
 C          3.0105532697       -0.0211662674        1.8812873479
 H          2.1117605029        0.4672313758        2.2508944104
 H          3.8217848105        0.2236343671        2.5595572127
 H          2.8469067399       -1.0920411093        1.9315741529
 C          4.4782557099       -0.6583644871       -0.9134380409
 O          1.8272277024       -2.0474689223       -0.0901624918
 H          4.0412074451       -1.6494441379       -0.9519900399
 H          5.4687134556       -0.7414629001       -0.4780149955
 H          4.5940949810       -0.3020529056       -1.9329867398
 C          0.6550584002       -1.7286469302       -0.0271861620
 C         -0.4697819553       -2.6371999558        0.4531233192
 H         -0.7500920827       -3.3076472005       -0.3610040825
 H         -0.1412957995       -3.2518799915        1.2905573001
 C          0.0637889693       -0.4534514294       -0.3387501538
 C          0.7171370422        0.7046938434       -0.5995875376
 O          2.0091348864        0.8247153400       -0.7749696125
 C         -2.6644503622        1.2205220662        1.2612674920
 C         -1.4442474127       -0.5275370467       -0.1933554635
 C         -1.6125135804       -1.6826481548        0.8152816477
 C         -2.0755411109       -0.8826194991       -1.5560812544
 O          0.1036183052        1.8982362420       -0.7240361301
 C         -3.0001821209       -2.3218480595        0.8404498304
 C         -3.5162829228       -1.3509062294       -1.3987605024
 H         -1.4863908315       -1.6764420865       -2.0192598877
 H         -2.0270390041       -0.0148356187       -2.2161147328
 C         -3.5513717098       -2.6157527490       -0.5501372989
 H         -3.6899596297       -1.6425076031        1.3455196985
 H         -2.9541560332       -3.2421248773        1.4273444930
 H         -3.9484722397       -1.5453754963       -2.3823580508
 H         -4.1059909670       -0.5677703065       -0.9165897535
 H         -4.5750439669       -2.9851420019       -0.4628724978
 H         -2.9601245728       -3.3942702925       -1.0361679741
 C         -2.7300905707        2.7149201031        1.3687826883
 C         -1.8877216244        0.8182017621        0.2668220418
 H         -3.2210302907        0.5881952951        1.9296564228
 C         -1.2947524871        1.9975089828       -0.4689907558
 C         -1.5875187548        3.1897965230        0.4574208385
 H         -1.8359539380        4.0911580387       -0.0974663985
 H         -0.6894213707        3.3850780361        1.0437228782
 H         -2.6125331602        3.0565494153        2.3978127212
 H         -3.6973223076        3.0760508985        1.0087707436
 H         -1.7854884394        2.1258456499       -1.4453455619
 H         -1.4049566858       -1.2794233749        1.8135573682
