  48
        -65.80912050
 Si         3.4096723666        0.3556337220        0.1092256272
 C          4.1919679120        2.0962293416        0.1125635631
 H          5.1254123429        2.1071437030        0.6654656357
 H          3.5341957352        2.8352271314        0.5618818713
 H          4.4064343658        2.4264573603       -0.8993722299
 C          2.8568930478       -0.1005266170        1.8742417338
 H          2.0101365593        0.5058291169        2.1882863557
 H          3.6513276793        0.0416130334        2.5996729990
 H          2.5502705413       -1.1406314606        1.9180548439
 C          4.5287898149       -0.9310522676       -0.7139682538
 O          1.5953854247       -2.3219585753       -0.1831372968
 H          4.7707512191       -0.6473648068       -1.7338239924
 H          4.0317249033       -1.8949486231       -0.7454108768
 H          5.4611717553       -1.0456669255       -0.1711676993
 C          0.4701337593       -1.8726955710       -0.0947582022
 C         -0.7367284047       -2.6387991665        0.4346042084
 H         -1.1228370813       -3.2744357623       -0.3640079193
 H         -0.4539059334       -3.2845657399        1.2652403713
 C          0.0133392220       -0.5384300109       -0.4045404698
 C          0.7926153129        0.5335284841       -0.6779639885
 O          2.0850972518        0.4647023994       -0.8955790350
 C         -2.4456286022        1.4496043313        1.2810351330
 C         -1.4847329606       -0.4331785702       -0.1985141628
 C         -1.7459810687       -1.5550622819        0.8282002129
 C         -2.2095932861       -0.7162917039       -1.5310253932
 O          0.3363281590        1.7985302696       -0.7605759853
 C         -3.1960877601       -2.0294682286        0.9135023626
 C         -3.6870537805       -1.0138026272       -1.3114314812
 H         -1.7359824840       -1.5743322786       -2.0118713236
 H         -2.0883737102        0.1384450673       -2.1988172763
 C         -3.8331011783       -2.2630222799       -0.4516032236
 H         -3.7824781674       -1.2735630085        1.4399606694
 H         -3.2326200746       -2.9467747941        1.5056870754
 H         -4.1789593919       -1.1603948218       -2.2750644013
 H         -4.1619029915       -0.1658585135       -0.8123648229
 H         -4.8881216404       -2.5116007557       -0.3206506676
 H         -3.3553760057       -3.1062664312       -0.9541663968
 C         -2.3336834869        2.9412723669        1.3855063387
 C         -1.7476131277        0.9575544082        0.2687159352
 H         -3.0553879518        0.8875892338        1.9656499901
 C         -1.0380081082        2.0584461543       -0.4858916725
 C         -1.1745095428        3.2819950789        0.4357479234
 H         -1.3419748314        4.2001518003       -0.1219796973
 H         -0.2433043703        3.3851933863        0.9931173173
 H         -2.1433825157        3.2659661395        2.4092174240
 H         -3.2641298255        3.4123060167        1.0570443024
 H         -1.5274786076        2.2349222671       -1.4553585808
 H         -1.4545049579       -1.1720264345        1.8134214922
