  48
        -65.80900083
 Si         3.4461468338        0.1892081926        0.0792145381
 C          4.1071083850        1.9777936415        0.0127258780
 H          4.3579826145        2.2609751073       -1.0054601772
 H          5.0020151750        2.0953380463        0.6152497375
 H          3.3698201103        2.6903842536        0.3731187186
 C          2.9341074097       -0.2578034491        1.8585806734
 H          2.1495907562        0.4020158960        2.2225854471
 H          3.7643911879       -0.1971095313        2.5544941555
 H          2.5486762315       -1.2727192003        1.8877692247
 C          4.6108474990       -1.0738788771       -0.7150799132
 O          1.3108863789       -2.5704074287       -0.1466144849
 H          4.8518921103       -0.8048089473       -1.7388057118
 H          4.1401541988       -2.0517336375       -0.7321089568
 H          5.5419501135       -1.1539509964       -0.1643675110
 C          0.2423586008       -1.9993067734       -0.0759028306
 C         -1.0477447906       -2.6138351937        0.4563192696
 H         -1.5040935920       -3.2029532379       -0.3409692354
 H         -0.8460553625       -3.2838658621        1.2912392059
 C         -0.0617298596       -0.6243211633       -0.4055035933
 C          0.8419202470        0.3423392639       -0.6825574488
 O          2.1106630371        0.0893435820       -0.9082414142
 C         -2.2617002893        1.6490122761        1.2827880270
 C         -1.5339310344       -0.3382253886       -0.1922507995
 C         -1.9236684335       -1.4166307898        0.8408692525
 C         -2.2930600762       -0.5333018918       -1.5213538717
 O          0.5532737347        1.6570382963       -0.7493016245
 C         -3.4191588551       -1.7188933025        0.9287316633
 C         -3.7942356823       -0.6576459433       -1.2971059349
 H         -1.9240645862       -1.4401039891       -2.0044532674
 H         -2.0754913888        0.3025646339       -2.1887421152
 C         -4.0806972297       -1.8807191414       -0.4350559192
 H         -3.9133942636       -0.8985693130        1.4534122643
 H         -3.5613049750       -2.6240407823        1.5236697159
 H         -4.3024248666       -0.7475561152       -2.2592698150
 H         -4.1666309272        0.2400137864       -0.7980310871
 H         -5.1570140808       -2.0071861846       -0.3024093212
 H         -3.7027545754       -2.7736700238       -0.9366790686
 C         -1.9672326197        3.1154322642        1.3906835484
 C         -1.6227245843        1.0750868588        0.2744469336
 H         -2.9412093464        1.1661687224        1.9620719348
 C         -0.7792247688        2.0824665458       -0.4740082444
 C         -0.7654733041        3.3092492024        0.4529462767
 H         -0.8077566325        4.2441386233       -0.1006048300
 H          0.1656877801        3.2884550822        1.0197357398
 H         -1.7484336840        3.4144099245        2.4165063854
 H         -2.8286768015        3.6980609818        1.0530761556
 H         -1.2422306975        2.3222234125       -1.4430209891
 H         -1.5896275273       -1.0637571302        1.8238471204
