  48
        -65.80898789
 Si         3.4792292985        0.0616551607        0.0522965260
 C          4.1028799745        1.8406023895       -0.2363255936
 H          4.3516388297        2.0003000808       -1.2816906407
 H          4.9926629810        2.0522439204        0.3478669704
 H          3.3475167024        2.5747330370        0.0309027387
 C          3.0283845406       -0.2009657010        1.8852460278
 H          3.8935363762       -0.1452248742        2.5377347294
 H          2.5757947654       -1.1802872433        2.0154698539
 H          2.3094269246        0.5399539175        2.2276894618
 C          4.6386302432       -1.2664397038       -0.6372862350
 O          1.0438862828       -2.7660491545       -0.0994622939
 H          4.1701806825       -2.2431428253       -0.5675860368
 H          5.5732522634       -1.2978283444       -0.0876811918
 H          4.8735682938       -1.0879686736       -1.6819255141
 C          0.0371514550       -2.0925576751       -0.0400511582
 C         -1.3106024442       -2.5712566773        0.4897675834
 H         -1.8175284875       -3.1219858156       -0.3044155393
 H         -1.1802529789       -3.2482273614        1.3332170324
 C         -0.1293198126       -0.6963646748       -0.3844013200
 C          0.8695972670        0.1742597498       -0.6506272457
 O          2.1084458041       -0.2119679541       -0.8505965306
 C         -2.1218561401        1.7996404172        1.2581092568
 C         -1.5676133017       -0.2654040032       -0.1851501833
 C         -2.0673562854       -1.2900201686        0.8556245448
 C         -2.3344129175       -0.3986143704       -1.5174872255
 O          0.7161842571        1.5124644180       -0.7186114578
 C         -3.5856434700       -1.4448240087        0.9358001090
 C         -3.8417778762       -0.3730168387       -1.3020355469
 H         -2.0531129744       -1.3420149551       -1.9893424758
 H         -2.0321811655        0.4053258389       -2.1911848604
 C         -4.2515630952       -1.5539614667       -0.4310847983
 H         -4.0013981011       -0.5761364812        1.4505487122
 H         -3.8182125353       -2.3267427712        1.5371352503
 H         -4.3510403423       -0.4216566403       -2.2666138640
 H         -4.1270184428        0.5614925128       -0.8132419252
 H         -5.3358645342       -1.5733736177       -0.3047358138
 H         -3.9597013479       -2.4842683772       -0.9221509534
 C         -1.6903808609        3.2324969632        1.3554687892
 C         -1.5236380955        1.1545156958        0.2679848584
 H         -2.8561971245        1.3927878226        1.9300037394
 C         -0.5742124686        2.0671502041       -0.4751419117
 C         -0.4598070730        3.2991842163        0.4376308120
 H         -0.4036392920        4.2266546124       -0.1272438059
 H          0.4551540464        3.1975999213        1.0220124377
 H         -1.4616130245        3.5224284351        2.3817434247
 H         -2.4865542089        3.8900601749        0.9957611652
 H         -0.9946734827        2.3366869525       -1.4557830518
 H         -1.7067575958       -0.9607684450        1.8374179147
