  48
        -65.80893313
 Si         3.4696146164        0.1901820579       -0.0219640717
 C          3.1290530657       -0.3237019590        1.7797648978
 H          2.3688250351        0.3052374079        2.2378089977
 H          4.0183171060       -0.2683831853        2.3992318978
 H          2.7665876910       -1.3473718100        1.8056653592
 C          4.6970713792       -0.9424009308       -0.9140188029
 H          4.8254711362       -0.6535815051       -1.9525825195
 H          4.3406024837       -1.9673209973       -0.8980604068
 H          5.6718597283       -0.9166454525       -0.4389107930
 C          3.9513184727        2.0345916981       -0.1068057448
 O          1.2425750313       -2.6371732024        0.0587159024
 H          3.1760719983        2.6693943239        0.3140582411
 H          4.1023721390        2.3502449330       -1.1351308719
 H          4.8699365376        2.2332444697        0.4357367989
 C          0.1917710190       -2.0325760817        0.1056499809
 C         -1.1006510579       -2.5660254396        0.7146670313
 H         -1.5854235617       -3.2143323716       -0.0172119583
 H         -0.8957539743       -3.1626783062        1.6028017844
 C         -0.0854759188       -0.6812241943       -0.3310980348
 C          0.8349996360        0.2384890803       -0.6976649999
 O          2.0938769033       -0.0626764543       -0.9208034235
 C         -2.2287625118        1.7820412300        1.1682217741
 C         -1.5479647745       -0.3451619583       -0.1231860158
 C         -1.9435164376       -1.3198613549        1.0061383307
 C         -2.3312960214       -0.6419032864       -1.4192405804
 O          0.5749833736        1.5505966321       -0.8652481644
 C         -3.4434397812       -1.5796570429        1.1418887458
 C         -3.8311083963       -0.7115868327       -1.1645161954
 H         -1.9889974051       -1.5964855482       -1.8234321658
 H         -2.1063807529        0.1255428418       -2.1621249681
 C         -4.1304161933       -1.8460314436       -0.1926370884
 H         -3.9119005515       -0.7058447644        1.5994764946
 H         -3.5946271512       -2.4257319966        1.8162455573
 H         -4.3559782839       -0.8754247075       -2.1077941160
 H         -4.1763014690        0.2353077654       -0.7428785598
 H         -5.2069836003       -1.9347546502       -0.0339458342
 H         -3.7807256680       -2.7886931078       -0.6179931133
 C         -1.9089277814        3.2468205496        1.1374537041
 C         -1.6049882508        1.1056244071        0.2154819790
 H         -2.9129198882        1.3767179815        1.8920213253
 C         -0.7481418769        2.0240724023       -0.6263397864
 C         -0.7084920966        3.3313395231        0.1819642670
 H         -0.7371615295        4.2112452544       -0.4561503998
 H          0.2246296800        3.3468906424        0.7455809406
 H         -1.6805842516        3.6371506724        2.1299484065
 H         -2.7621734247        3.8096227576        0.7490454177
 H         -1.2123086323        2.1805075477       -1.6118034243
 H         -1.5860003962       -0.8900364584        1.9494255915
