12
-2.039676898972175
C        1.451701       1.364333      -2.847650
C        0.574489       0.409383      -2.050641
C        1.420152       0.274458      -0.789246
O        2.047757       2.172580      -1.848237
O        2.286641       1.311992      -0.752558
O        1.501301      -0.623357      -0.011727
H        0.217608       2.095066       1.075642
H        2.218470       0.822022      -3.418328
H        0.909665       2.041410      -3.506805
H       -0.041212       2.596223       0.529468
H        0.406223      -0.554513      -2.523301
H       -0.387895       0.853270      -1.788821
12
-2.064377799115391
C        1.452511       1.364607      -2.847292
C        0.574289       0.409938      -2.051097
C        1.420426       0.273797      -0.790065
O        2.049396       2.171299      -1.846739
O        2.285380       1.309179      -0.751164
O        1.499034      -0.623699      -0.013528
H        0.215312       2.100237       1.069933
H        2.219147       0.820724      -3.417578
H        0.912511       2.043037      -3.506216
H       -0.038482       2.592037       0.532340
H        0.404805      -0.553816      -2.523512
H       -0.387535       0.854591      -1.788488
