12
-38.000192031769984
C        0.771335       1.402662      -2.405886
C        1.016487       0.934615      -0.951497
C        1.971523      -0.241995      -0.974126
O        0.010378       2.581031      -2.417992
O        1.513766       1.986718      -0.177224
O        3.117489      -0.222620      -0.645412
H        1.300007       2.817931      -0.625435
H        1.728048       1.665349      -2.864197
H        0.298347       0.603551      -2.989142
H        1.485794      -1.163832      -1.357857
H        0.056660       0.580387      -0.528354
H       -0.880834       2.395715      -2.098669
12
-38.00023054830126
C        0.771336       1.402653      -2.405887
C        1.016472       0.934622      -0.951495
C        1.971530      -0.242008      -0.974121
O        0.010358       2.581036      -2.418011
O        1.513751       1.986757      -0.177207
O        3.117532      -0.222640      -0.645400
H        1.300034       2.817952      -0.625443
H        1.728056       1.665352      -2.864176
H        0.298373       0.603537      -2.989135
H        1.485779      -1.163861      -1.357865
H        0.056651       0.580395      -0.528360
H       -0.880873       2.395714      -2.098688
