12
-25.923387319709946
C        0.805908       1.482219      -2.440726
C        0.838503       0.850263      -1.051501
C        1.959916      -0.213268      -1.034626
O        0.245403       2.760617      -2.271486
O        1.451952       1.822022      -0.192700
O        2.994738      -0.128018      -0.470103
H        1.210855       2.724589      -0.429980
H        1.836192       1.570947      -2.797402
H        0.227027       0.915393      -3.183794
H        1.697428      -1.108331      -1.645157
H       -0.032014       0.268701      -0.760822
H       -0.644368       2.532292      -1.964124
12
-26.273043310589856
C        0.806042       1.481475      -2.441315
C        0.839833       0.849886      -1.050163
C        1.960229      -0.214785      -1.034203
O        0.245956       2.761996      -2.272776
O        1.449264       1.819196      -0.193839
O        2.995450      -0.128428      -0.470418
H        1.205730       2.721421      -0.430914
H        1.835766       1.569513      -2.799448
H        0.225936       0.914133      -3.182895
H        1.697566      -1.109595      -1.644899
H       -0.030903       0.269733      -0.758315
H       -0.640044       2.537069      -1.965436
