12
 energy: -21.569103013480 gnorm: 0.000736189210 xtb: 6.2.3 (830e466)
C         0.31583281242906    0.64307570252264   -2.28606614025336
C         1.33802121506832    1.78222310029726   -2.19131021030558
C         2.30577349160308    1.52493956894248   -1.06507487367945
O        -0.47298648348063    0.54741131020194   -1.13004109117837
O         0.35177183919651    0.17389963970249   -0.03295649671438
O         2.55511973480687    2.29986023654642   -0.18531913064022
H         0.04795741349140    0.74654789656173    0.68453268996949
H         0.82490850082824   -0.31037855751557   -2.47535451188435
H        -0.41524754393935    0.83282279889041   -3.07465384334553
H         2.80509346033572    0.53996678278014   -1.12760754156892
H         1.90137711047632    1.82469051422362   -3.12464518943416
H         0.83167844918447    2.73503100684643   -2.02730366096520
12
Properties=species:S:1:pos:R:3 -21.674156855014=T 6.2.3=T gnorm:=T pbc="F F F" energy:=T xtb:=T 830e466=T 0.001001156904=T
C       0.81413496       0.49575982      -2.66742831 
C       0.70209070       1.63870651      -1.64468982 
C       1.62202365       1.40985399      -0.46026155 
O       0.42539156      -0.73815112      -2.13745684 
O       1.74881104       2.45423481       0.37490944 
O       2.19518246       0.38023427      -0.24345713 
H       1.24084829       3.22833964       0.09668386 
H       1.84731314       0.45344383      -3.04139327 
H       0.14528761       0.69134547      -3.50967471 
H       1.03273597      -0.94787393      -1.41290692 
H       0.93928715       2.59151504      -2.12418913 
H      -0.32380653       1.68268167      -1.26593561 
