12
 energy: -21.566994257046 gnorm: 0.000972624293 xtb: 6.2.3 (830e466)
C         1.24947271483749    1.43013157599437   -2.36013884168047
C         0.44501390757346    0.47921412743221   -1.46969381788949
C         1.31129756108871   -0.50715013001330   -0.73620713669459
O         1.80085249857791    2.50283462249216   -1.64769510444620
O         0.75105575171739    3.36043022791031   -1.18498300123810
O         2.45723740603818   -0.74817885790797   -0.98090496275909
H         1.23424721897423    4.16932810796830   -0.97335149205082
H         2.13268684043507    0.92108510901027   -2.75598655347404
H         0.62939009269387    1.80494456151361   -3.18371177396437
H         0.77399420888755   -1.03840985772123    0.07497967713062
H        -0.26434497877243   -0.09586083873359   -2.06971974621724
H        -0.13159322205138    1.06174135205489   -0.74839724671616
12
Properties=species:S:1:pos:R:3 6.2.3=T gnorm:=T pbc="F F F" -21.595631045723=T energy:=T xtb:=T 830e466=T 0.000950759611=T
C       1.10344168       1.49410333      -2.37979695 
C      -0.29175495       2.02637740      -2.08154344 
C       2.25159868      -0.26758087      -0.12300979 
O       2.02136019       1.70459542      -1.32665799 
O       1.69358820       0.93384081      -0.17125664 
O       2.93378533      -0.80918371      -0.93020915 
H      -0.24035066       3.07975154      -1.81912157 
H       1.06996083       0.43115909      -2.65065122 
H       1.57406622       2.05136878      -3.19370374 
H       1.93260027      -0.69439243       0.84877751 
H      -0.92223223       1.90715158      -2.95764156 
H      -0.73675356       1.48291908      -1.25099546 
