12
 energy: -21.568734232064 gnorm: 0.000651590636 xtb: 6.2.3 (830e466)
C         1.49101603344242    1.41256915399456   -2.12265090568644
C         0.56068585038550    0.61551866196381   -1.20657599854188
C         1.07404041363669   -0.76170844120935   -0.92373972594168
O         0.96410461163818    2.66049174019975   -2.48143463871226
O         0.90301185838561    3.50149281754817   -1.32478253689865
O         2.07299084003179   -1.24346295803174   -1.37643193518116
H         0.80900116262081    4.37882452715102   -1.71668895686339
H         2.47210996106789    1.53001022766112   -1.64712174320410
H         1.61735065055679    0.90534274911770   -3.08198463919807
H         0.42341687534456   -1.33499176578906   -0.23327939031612
H        -0.43039834839946    0.52865505506227   -1.66093477954540
H         0.43199009128932    1.14715823233176   -0.26006474991085
12
Properties=species:S:1:pos:R:3 6.2.3=T gnorm:=T pbc="F F F" 0.000433637843=T energy:=T -21.588055548147=T 830e466=T xtb:=T
C       1.81931521       1.86983633      -3.11711791 
C       0.33317932       1.01411989      -0.66328155 
C       0.90035349      -0.38352754      -0.68834920 
O       0.67873237       1.77283433      -3.48038758 
O       1.35708605       1.97176450      -0.76526360 
O       2.04292780      -0.68004541      -0.86223854 
H       0.96923254       2.85378287      -0.73169491 
H       2.32630839       2.84314764      -3.01831460 
H       2.45930166       0.99959420      -2.91999390 
H       0.10961696      -1.14532567      -0.53273879 
H      -0.36031665       1.08702522      -1.51862568 
H      -0.24641713       1.13669364       0.26231626 
