12
 energy: -21.568779621040 gnorm: 0.000138884270 xtb: 6.2.3 (830e466)
C         1.41312191632423    1.43329123349736   -2.15822420712303
C         0.57533062656966    0.56858541645383   -1.21533333781832
C         1.24420330704878   -0.72666372853791   -0.87565759818787
O         0.78260471736383    2.64092129914380   -2.49263858507244
O         0.69194887579167    3.47409919380348   -1.33571854532836
O         2.31971155115810   -1.08283842567190   -1.26566215198969
H         0.78997293758428    4.36050975372092   -1.70664699138258
H         2.39824076214763    1.61995923208028   -1.71338369211475
H         1.54498809658354    0.94110922298356   -3.12461993642127
H         0.63955189857693   -1.36438461402708   -0.20008219878076
H        -0.40073210191890    0.35635846856638   -1.65948964106771
H         0.39037741277026    1.11905294798729   -0.28834311471320
12
Properties=species:S:1:pos:R:3 6.2.3=T gnorm:=T pbc="F F F" 0.000926225235=T energy:=T -21.561985001537=T xtb:=T 830e466=T
C       1.88601942       2.43208293      -2.69935584 
C       0.00108239       0.59222174      -0.64638656 
C       1.11550138      -0.43177035      -0.65469701 
O       0.58831871       1.96137496      -2.42881628 
O       0.36975413       1.88945862      -1.02034932 
O       2.25419296      -0.23727035      -0.95933576 
H       2.03317619       3.43580582      -2.29082179 
H       2.64802097       1.75218614      -2.30704511 
H       1.92992430       2.46274441      -3.78738523 
H       0.75492701      -1.43266718      -0.34060918 
H      -0.81774964       0.21794864      -1.27836275 
H      -0.37384782       0.69788462       0.37736482 
