12
 energy: -21.568752781320 gnorm: 0.000838615345 xtb: 6.2.3 (830e466)
C         1.55058264933394    1.47599462770871   -2.03425640870343
C         0.88617403885546    0.69490444253771   -0.89926373673717
C         1.14375530025782   -0.77694112097529   -0.98601775628270
O         1.40227917654758    2.86310321597763   -1.89934928256820
O         0.02477262163177    3.21382659271477   -2.06430726430013
O         1.79725496837656   -1.32566512759971   -1.82712964363237
H         0.07875678013466    4.15296378334991   -2.28416562275773
H         2.63398485902160    1.33495543241294   -2.01941409311433
H         1.15769107751105    1.13694243470738   -3.00033312722267
H         0.66185631488784   -1.35110034234181   -0.16870418083990
H        -0.19383511879653    0.86498596735352   -0.92113924627275
H         1.24603733223828    1.05583009415425    0.06829036243136
12
Properties=species:S:1:pos:R:3 0.000770531174=T 6.2.3=T gnorm:=T pbc="F F F" -21.645252502188=T energy:=T xtb:=T 830e466=T
C       1.04085530       1.64854635      -2.21283069 
C       0.63851559       0.82263518      -0.97269739 
C       1.10688008      -0.60614483      -1.05335811 
O       2.39600997       1.96589232      -2.19521239 
O       0.23061560       2.77745384      -2.35288688 
O       1.33244692      -1.20834190      -2.06003609 
H       0.37905617       3.38606381      -1.61772745 
H       2.60456174       2.50394931      -1.41998985 
H       0.88670179       1.05350272      -3.11837271 
H       1.21208109      -1.08781778      -0.05997943 
H      -0.45382931       0.79744995      -0.91601928 
H       1.01541507       1.28661103      -0.05667973 
