12
 energy: -21.561955859250 gnorm: 0.000548226491 xtb: 6.2.3 (830e466)
C         1.88914486908497    1.29954747840493   -2.33785836547556
C        -0.45281349498512    0.16854600061456   -1.17315745161017
C         0.77623871490742   -0.05271468040961   -0.74234320470401
O         1.21936257216663    2.51039728459025   -2.16902508199492
O         2.01752671527764    3.44413659819548   -1.46931320253594
O         1.94142698189400    0.50019434819167   -1.19382512210798
H         1.69144802242026    3.41667985499372   -0.55696203089296
H         2.93268326373836    1.46758204253864   -2.62815869018715
H         1.33463578848254    0.80488185672596   -3.14793921049412
H         1.00062278199636   -0.73284432306479    0.06781805875916
H        -1.27865491152685   -0.35043299967043   -0.72470064629134
H        -0.68241130345621    0.86391653888964   -1.96053505246502
12
Properties=species:S:1:pos:R:3 6.2.3=T gnorm:=T pbc="F F F" -21.564889746688=T energy:=T 0.000528696116=T xtb:=T 830e466=T
C       0.97314767       1.20510285      -2.65571977 
C       0.30080456       0.23912836      -1.71229334 
C       0.73363463      -0.05991922      -0.49003224 
O       0.87632542       2.57249219      -2.30014344 
O       1.85355662       2.88310908      -1.29943004 
O       1.79905987       0.45412399       0.14569739 
H       1.55579609       3.74497878      -0.98176337 
H       2.03421815       0.95282805      -2.79447850 
H       0.47797096       1.17957803      -3.62848986 
H       0.22280807      -0.79229715       0.12041813 
H      -0.59425600      -0.23840187      -2.07194342 
H       2.15614396       1.19916694      -0.36782153 
