9
 energy: -16.535971718825 gnorm: 0.000724286532 xtb: 6.2.3 (830e466)
C         0.82810228883981    1.06975540684099   -2.68722930849350
C         0.34504995728297    0.43905704597808   -1.40284415362675
C         1.21180551638073   -0.69044856441445   -0.91750042219441
O         0.28172552292427    1.98011871076726   -3.23918089219204
O         2.19990618924946   -1.09412667991893   -1.45702455489253
H         1.74924081639740    0.60900779422806   -3.08515960037914
H         0.84344373172036   -1.14357464969762    0.02413440340896
H        -0.67737762981048    0.07191797989072   -1.53920381947032
H         0.28430360701548    1.20390295632590   -0.62178165216028
9
Properties=species:S:1:pos:R:3 6.2.3=T gnorm:=T 0.000191979526=T pbc="F F F" energy:=T xtb:=T -16.538985728822=T 830e466=T
C       1.24008033       0.86106740      -2.86291793 
C       0.18119411       0.01674804      -0.71055554 
C       1.29336671      -0.12856601      -1.69735667 
O       0.38964838       1.69284070      -3.00239584 
O       2.18557259      -0.93588624      -1.63684296 
H       2.07570314       0.73177786      -3.57435853 
H       0.27475024      -0.71277704       0.08837894 
H      -0.77008260      -0.10629731      -1.22575061 
H       0.19596710       1.02670259      -0.30399088 
