12
 energy: -21.564698260830 gnorm: 0.000610536104 xtb: 6.2.3 (830e466)
C         2.07833850199145    1.37123374981410   -1.67126963107681
C         1.36977715350706    0.65286893440888   -0.55536035305275
C         0.23348775768546   -0.02798463660363   -0.66768230252661
O         1.26624135109703    1.73649419015503   -2.77517724741397
O         0.34058487569088    2.75230615077751   -2.42221924276359
O        -0.51210463650276   -0.19684535107702   -1.77171060076561
H         0.67887790332966    3.55083738342844   -2.85136493810612
H         2.59225762109263    2.25752397800068   -1.27607049909059
H         2.82421451417044    0.72268291462380   -2.14767514943395
H        -0.19998811594923   -0.52773719383105    0.18832522888273
H        -0.14186441926513    0.34373525038429   -2.48782422932610
H         1.85947749315254    0.70478462991925    0.40221896467322
12
Properties=species:S:1:pos:R:3 6.2.3=T gnorm:=T pbc="F F F" energy:=T -21.562207114392=T xtb:=T 830e466=T 0.000539842497=T
C       2.04408200       0.96964496      -1.46180459 
C       1.60941066       0.29432139      -0.18946667 
C       0.43366823      -0.26117378      -0.43433812 
O       0.97983605       0.70471377      -2.37196459 
O       0.19581924       3.47363643      -2.92560881 
O      -0.02108424      -0.07589813      -1.69409909 
H      -0.18362714       3.65719245      -3.78691011 
H       2.15373178       2.05619049      -1.34744959 
H       2.97389917       0.54806497      -1.86715516 
H      -0.23086128      -0.83471595       0.18246820 
H       0.25602276       2.51342371      -2.85387677 
H       2.17840277       0.29449970       0.71439529 
