12
 energy: -21.512315173297 gnorm: 0.000952279958 xtb: 6.2.3 (830e466)
C         0.58101489941659    1.56217079394169   -2.26331104838356
C        -0.50530054233490    1.23432670656695   -1.58933690430788
C         2.56665275590949   -0.90115756916715   -0.77403500356080
O         1.21062638212580    2.76129680472213   -2.30004633607890
O         0.58432306927445    3.75151763020487   -1.48482962679574
O         2.60649414520540   -1.05946677338336   -1.95596384649276
H         1.02760049800396    4.55762360606253   -1.78093812920998
H         3.19763835356965   -1.47651581461461   -0.07595192022471
H         1.14758725970517    0.88776555626780   -2.89078193582441
H         1.89619281759983   -0.16884469383254   -0.29533106210716
H        -0.90259451663759    0.23971764300871   -1.64871144132117
H        -1.02093512183863    1.95157611021975   -0.97666274569328
12
Properties=species:S:1:pos:R:3 -21.558406946148=T 6.2.3=T gnorm:=T pbc="F F F" energy:=T 0.000866178468=T xtb:=T 830e466=T
C       1.03664433       1.90415806      -2.76362901 
C       1.04888175       1.13389169      -1.68514269 
C       1.31256692      -0.93201842      -0.56758965 
O       0.77484757       3.24560563      -2.79678469 
O       0.48688990       3.77864843      -1.50660829 
O       1.32761802      -0.19829158      -1.77015008 
H       0.39238045       4.71921827      -1.70556992 
H       2.29558000      -1.38715954      -0.41847458 
H       1.23604662       1.56169783      -3.76519787 
H       1.07739431      -0.30356116       0.29419937 
H       0.56334198      -1.72477703      -0.64495514 
H       0.83710816       1.54259781      -0.70599745 
