12
 energy: -21.559902664044 gnorm: 0.000204895641 xtb: 6.2.3 (830e466)
C         1.90471215868415    1.28977533664134   -2.50442185671789
C        -0.18859289086738    0.24877343489529   -0.77081383126852
C         1.06552701303966   -0.16407333389060   -0.79881602916145
O         2.02329819008376    2.59306314268329   -2.03395237916694
O         0.77285179106056    3.08699093092851   -1.54792098695886
O         2.11292092684061    0.29790143105684   -1.54507309921383
H         1.04592158125142    3.78442673940871   -0.93764957932416
H         2.73934473297503    1.19799384509937   -3.20905166334223
H         0.94504606962311    1.15420492951048   -3.02344388240633
H         1.41802042968114   -0.98568545226475   -0.18999815719811
H        -0.89495894410519   -0.24331447218619   -0.12931106181143
H        -0.55479105826688    1.07985346811777   -1.34554747343006
12
Properties=species:S:1:pos:R:3 6.2.3=T gnorm:=T pbc="F F F" -21.651196025873=T energy:=T 0.000721213257=T 830e466=T xtb:=T
C       1.48328079       1.68195357      -2.19174294 
C      -0.33296706       0.12320720      -0.62673291 
C       0.94123700      -0.16591367      -0.81277528 
O       2.49838702       2.04654152      -3.04209928 
O       1.19079084       2.68675353      -1.26834817 
O       1.88005725       0.54546670      -1.50325243 
H       1.13271270       3.52991490      -1.73024149 
H       3.33379896       2.00150527      -2.55705517 
H       0.60330258       1.47225209      -2.82965148 
H       1.40461108      -1.05785498      -0.41583313 
H      -0.95514893      -0.54634330      -0.06353264 
H      -0.79076224       1.02242718      -0.99473508 
