10
 energy: -20.531029878430 gnorm: 0.000653099903 xtb: 6.2.3 (830e466)
C         1.25611879906576    2.45967086273101   -1.70519463672137
C         0.82080517660123    2.22627915810896   -0.43690535161546
C         0.41365084643880    0.99103496472065    0.16532732114466
O         1.44553580487869    1.73980423126955   -2.77483296635405
O         1.16712744007878    0.36887991307793   -2.79602562830491
O         0.40058184961560   -0.11542299023168   -0.35544542945530
H         0.86697485682797    0.07445712934839   -1.87296609730089
H         1.53366518444240    3.47675608681327   -1.97175450660526
H         0.09140325008383    1.09650978661676    1.21252401408027
H         0.78162679196695    3.09204085754516    0.20468328113234
10
Properties=species:S:1:pos:R:3 6.2.3=T gnorm:=T pbc="F F F" -20.481926097784=T 0.000363864805=T energy:=T xtb:=T 830e466=T
C       1.25938788       2.56562167      -1.77335899 
C       1.01415806       2.22102918      -0.51508525 
C       0.61094138       0.80581744      -0.21667087 
O       1.12389824       1.71409608      -2.82944518 
O       0.37918127       0.56732928      -2.48596776 
O       0.90078069      -0.02001433      -1.33669290 
H       1.21551893       0.38045942       0.58719187 
H       1.60952153       3.52716627      -2.11182697 
H      -0.45245956       0.73477295       0.05326250 
H       1.11656160       2.91373205       0.29800356 
