12
 energy: -21.555907537565 gnorm: 0.000635047717 xtb: 6.2.3 (830e466)
C         1.41032365335964    1.75344150495859   -1.68107475158339
C         1.06886996089228    0.66774819823470   -0.71145407850819
C         0.88417931284961   -0.59756451703882   -1.06198109650881
O         0.66592070690359    2.89085044879593   -1.29724933818873
O         1.04120160432609    3.99205431257886   -2.12451165805180
O         1.00471790763336   -1.02911753722403   -2.34988232585767
H         0.27132687337564    4.57006135798110   -2.05633462551102
H         2.48378777231480    1.99100508679130   -1.63620733265972
H         1.15894661482721    1.45087423343189   -2.70472191340522
H         0.64575849300124   -1.34829535992150   -0.31866277522681
H         0.78567033704676   -1.96348498409742   -2.41241903692335
H         0.96869676346979    0.96232725550950    0.31879893242479
12
Properties=species:S:1:pos:R:3 0.000629410031=T 6.2.3=T gnorm:=T pbc="F F F" energy:=T -21.479551122196=T 830e466=T xtb:=T
C       1.67347921       1.85751905      -1.95611118 
C       1.30158988       0.45884393      -2.00086708 
C       0.85691946      -0.65527537      -2.01300890 
O       0.47689649       2.61514837      -1.97435720 
O       0.81642831       4.00087770      -1.89767907 
O       0.48335585      -1.90130261      -1.97826503 
H      -0.04747262       4.40742223      -1.75293741 
H       2.23832538       2.07113418      -1.03719530 
H       2.29396694       2.11669413      -2.82631195 
H       0.99793922       0.21806602       0.75080637 
H       0.28185090      -2.23010497      -2.86262523 
H       1.01612099       0.38087734       1.51285198 
