12
 energy: -21.564689452486 gnorm: 0.000834543432 xtb: 6.2.3 (830e466)
C         1.91362678391313    1.69373899905537   -1.76246832021333
C         1.63600217725490    0.69488860870677   -0.67170307273132
C         0.75229610483788   -0.29659077138943   -0.73986779590034
O         0.85220653205366    1.90203880589378   -2.67988413566070
O        -0.23958875427731    2.56699988401321   -2.06088184675546
O        -0.06657916712989   -0.58999941722579   -1.76338577902634
H        -0.25600822012971    3.43915328613926   -2.47915715489393
H         2.22064747354249    2.65161228648039   -1.32237701251400
H         2.71576090602056    1.34292009564398   -2.42478470933658
H         0.62217009403129   -0.98375339621310    0.08562389300031
H         0.01164522857903    0.10463686048774   -2.43716752613210
H         2.22712084130412    0.81425475840776    0.22046346016372
12
Properties=species:S:1:pos:R:3 0.000492243086=T 6.2.3=T gnorm:=T pbc="F F F" energy:=T -21.636324446854=T 830e466=T xtb:=T
C       1.64268796       2.38332473      -2.13910527 
C       1.20737737       0.51910371      -0.79883973 
C       0.55722780      -0.62500273      -0.63039198 
O       1.42992418       1.01970440      -2.07814152 
O       0.46657239       3.07196276      -1.79739665 
O       0.04264531      -1.37261315      -1.63698334 
H       0.44147777       3.92665233      -2.23447265 
H       2.45861159       2.68053399      -1.45010520 
H       1.94582393       2.58888733      -3.17409465 
H       0.40616647      -1.05906811       0.34332456 
H       0.19454588      -0.89210218      -2.46212654 
H       1.59623936       1.09851692       0.02274297 
