12
 energy: -21.559885793623 gnorm: 0.000993371700 xtb: 6.2.3 (830e466)
C         2.24597464931094    1.35672081027750   -2.00234875538249
C         0.03001729361026    0.36063922597052   -0.40041905902083
C         0.62388543742949   -0.29028025801332   -1.38409373875250
O         1.64595329355732    2.42654600165889   -2.65690816779374
O         0.63224504382686    3.02989697760949   -1.84802689440894
O         1.63250825408487    0.12090486391341   -2.20933162613937
H         0.11855861510849    3.52720088177929   -2.49669921096412
H         2.35921866429756    1.57658942099492   -0.93096374819960
H         3.22729504771762    1.28267301138910   -2.48556295660148
H         0.35804947679754   -1.30417390200486   -1.65112987463178
H        -0.74281849780639   -0.12373178698127    0.16591585397747
H         0.25841272206571    1.37711475340630   -0.13633182208255
12
Properties=species:S:1:pos:R:3 6.2.3=T gnorm:=T pbc="F F F" 0.000336739052=T energy:=T xtb:=T 830e466=T -21.493025978741=T
C       2.16671619       2.67915397      -2.67714111 
C      -0.55841776       0.04105468      -0.31373781 
C       0.43159023      -0.50000628      -0.99371676 
O       1.29408877       2.31933010      -1.62554454 
O       1.85176484       1.34802535      -0.79636485 
O       1.63814672       0.06075151      -1.31476339 
H       1.62139169       3.44663430      -3.22159294 
H       3.10545653       3.08236946      -2.29052212 
H       2.36790437       1.82632003      -3.33171692 
H       0.42488554      -1.49480776      -1.41622112 
H      -1.46137634      -0.50912362      -0.13338170 
H      -0.49285078       1.04039826       0.07880326 
