12
 energy: -21.510659327884 gnorm: 0.000953294427 xtb: 6.2.3 (830e466)
C         0.10847863112826    0.67778317915751   -2.02988822698207
C        -1.16651417283447    0.93035103587804   -2.25985285001341
C         2.87353103909159    2.45870255866166   -0.98725548325075
O         0.49203594104049    0.01506288841209   -0.89606271854898
O         1.89969763804559   -0.10779626308441   -0.80277673581463
O         2.95597530824976    2.53272965628681   -2.17564398517524
H         2.03957178191543   -1.06007707551566   -0.68970696141957
H         3.69260842082302    2.08059479270044   -0.35549014701787
H         0.91566990294154    0.97019836341173   -2.68625997940268
H         1.97421907003789    2.76930507348875   -0.43191039671932
H        -1.46379904005860    1.44706941124631   -3.15083186993080
H        -1.93229452038074    0.62629637935703   -1.57014064572521
12
Properties=species:S:1:pos:R:3 6.2.3=T gnorm:=T pbc="F F F" energy:=T 0.000968071528=T 830e466=T xtb:=T -21.641747100155=T
C      -0.03332276       0.99799276      -1.97894518 
C      -1.29281093       1.03022857      -2.37136676 
C       3.59632253       1.71692977      -1.14767418 
O       0.42125953       0.35823206      -0.85992023 
O       3.07061154       0.94942065      -0.22207865 
O       3.05524512       2.08819859      -2.14868819 
H       2.14030214       0.70586400      -0.44313341 
H       4.63124307       1.98334445      -0.87595540 
H       0.77642803       1.48229554      -2.50524895 
H      -0.31857899      -0.06198723      -0.40218024 
H      -1.58055389       1.55236238      -3.26257404 
H      -2.07696538       0.53733847      -1.81805477 
