12
 energy: -21.559754954591 gnorm: 0.000664917357 xtb: 6.2.3 (830e466)
C         2.31591775387251    1.43828820094749   -1.97293750219165
C        -0.43209381477238   -0.21411656032789   -0.39695507340891
C         0.51122961357416    0.12574742616028   -1.25614782999011
O         1.64697028032628    2.28958004566422   -2.85313205170939
O         1.48677037010327    3.57854540498942   -2.29743481439799
O         1.51936836666829    0.99146310108454   -0.92082268677616
H         0.62060927081274    3.56026378805733   -1.86070701455262
H         3.17601085313413    1.93892201334445   -1.51401506156924
H         2.64485650490693    0.61270970880327   -2.62081457063682
H         0.54860824046440   -0.25805022785808   -2.26997016043317
H        -1.19907850769443   -0.91151341051851   -0.67305387994581
H        -0.44985893139597    0.18806050965350    0.59999064561167
12
Properties=species:S:1:pos:R:3 6.2.3=T gnorm:=T 0.000730061235=T pbc="F F F" -21.563500077322=T energy:=T xtb:=T 830e466=T
C       2.56282162       0.58759835      -2.21370163 
C      -0.60802150       0.41151214      -0.51430742 
C       0.42979006       0.86325783      -1.21410679 
O       0.27973723       1.99031408      -1.97223857 
O       1.17464125       3.04949450      -1.58133023 
O       1.60116409       0.19385230      -1.25099391 
H       0.57472401       3.79363078      -1.43701469 
H       3.00846235       1.55104234      -1.95508230 
H       2.11837071       0.65332543      -3.20998130 
H       3.32447101      -0.18882694      -2.19809723 
H      -0.55982432      -0.54208224      -0.02702030 
H      -1.51702651       0.97678142      -0.46212564 
