12
 energy: -21.512854974431 gnorm: 0.000836903016 xtb: 6.2.3 (830e466)
C         1.71291151942447    1.09787723040924   -1.37076549991947
C         1.02137160588610    0.54944542402058   -0.36460495085718
C         1.49125754610698   -0.67654263717990    0.25642148574632
O         1.45075990605392    2.19972850140983   -2.06670189029119
O         0.26060736505128    2.86415462019995   -1.65959887712414
O         2.49093211165859   -1.28075256507380   -0.05194787397219
H         0.15311434541744    3.53502319687358   -2.34905599535322
H         0.50118858113146    2.20890327601596   -4.85973574543592
H         2.63136417790910    0.65623571026517   -1.74059102533418
H         0.83899076418485   -1.04047873843423    1.07253484997605
H        -0.27630231686535    2.22241205092897   -4.89683606583894
H         0.11308439404074    1.00399393056503   -0.00490841159628
12
Properties=species:S:1:pos:R:3 -21.614534370500=T 0.000486475014=T 6.2.3=T gnorm:=T pbc="F F F" energy:=T xtb:=T 830e466=T
C       1.95488840       0.87666270      -1.86035579 
C       1.10454481       0.63281575      -0.85475131 
C       1.42290911      -0.39713115       0.12175367 
O       1.72946487       1.80863811      -2.80710606 
O      -0.92879989       3.05592770      -2.19760747 
O       2.41007351      -1.09412939       0.10794863 
H      -0.02669021       2.78613731      -2.39962207 
H       2.46341499       1.86364770      -3.42942084 
H       2.87101218       0.30037498      -1.92920883 
H       0.66303991      -0.50822689       0.91732556 
H      -1.46180762       2.82743643      -2.96118603 
H       0.18722994       1.18784676      -0.74355945 
