10
 energy: -20.531032687793 gnorm: 0.000467107449 xtb: 6.2.3 (830e466)
C         1.67327878920732    2.43364844369540   -1.22064340324202
C         1.55113939832945    1.31751564182256   -0.45117185858475
C         0.48569158783263    0.35949491975662   -0.41443587573008
O         0.95175128574816    3.02583131208660   -2.12971273274779
O        -0.29066547808869    2.51890324406446   -2.52673793748350
O        -0.53242812679144    0.36039758293873   -1.09210569438780
H        -0.47750716187624    1.65908870057128   -2.02106004925862
H         2.56983235107804    3.03847760020936   -1.10484937510084
H         0.64448988248253   -0.44857267404094    0.31536336235544
H         2.37141747207830    1.12782522889575    0.22245356417999
10
Properties=species:S:1:pos:R:3 6.2.3=T gnorm:=T 0.000483271553=T pbc="F F F" -20.543069777021=T energy:=T xtb:=T 830e466=T
C       1.49743139       2.53081156      -1.59517374 
C       2.37258099       1.95597609      -0.79498830 
C      -0.57636133       0.39388187      -0.83164634 
O       0.13842897       2.48622444      -1.55357267 
O      -0.40156784       1.67214100      -0.51365820 
O      -0.29974297      -0.16889304      -1.83739456 
H       3.42406779       2.08450132      -0.96063587 
H       1.75502107       3.15154971      -2.44210815 
H      -1.03988521      -0.05804748       0.06662755 
H       2.07702715       1.34446452       0.03965028 
