12
 energy: -21.561594105415 gnorm: 0.000590239359 xtb: 6.2.3 (830e466)
C         1.29577836899367    1.87202763976497   -1.90391460316244
C         1.42717485372107    0.50150351553824   -1.32611461409430
C         0.79564371947805   -0.55972427670061   -1.80840615399038
O         0.73110584816644    2.68099728344140   -0.89090044932332
O         0.67220371329236    4.03152156857932   -1.35174791029312
O         0.88423405109486   -1.81773269270234   -1.32878055938042
H        -0.00714249596734    4.41190568939998   -0.78113785787287
H         2.27894366976208    2.27781690302556   -2.18089644862769
H         0.64896122729098    1.86867714036581   -2.79007875134492
H         0.14972445240353   -0.51396931853046   -2.67338582384245
H         1.45511183708427   -1.83426811691607   -0.54926089100400
H         2.05767075467992    0.42123466473423   -0.45126593706420
12
Properties=species:S:1:pos:R:3 0.000321788636=T 6.2.3=T gnorm:=T pbc="F F F" energy:=T xtb:=T 830e466=T -21.569986924676=T
C       2.29821729       1.27025751      -1.63457188 
C       0.84626238       1.11349367      -1.27625780 
C       0.12541938      -0.00133648      -1.42447389 
O       0.21803419       2.18540175      -0.69747459 
O       0.23367718       3.33924415      -1.57740279 
O       0.59910941      -1.20634702      -1.80980146 
H      -0.53078371       3.83529502      -1.26063764 
H       2.48048952       2.31424878      -1.87721190 
H       2.56296372       0.66421893      -2.49917093 
H      -0.92086777      -0.03498762      -1.16207971 
H       1.53881206      -1.13672248      -2.02195713 
H       2.93807636       0.99722380      -0.79485026 
