12
 energy: -21.559938326036 gnorm: 0.000447965810 xtb: 6.2.3 (830e466)
C         2.15997609959413    1.59199558416216   -2.09730512258366
C         0.28176373668339    0.24194453800227   -0.32934383380039
C         0.87517579644817   -0.29606917861675   -1.38006650520298
O         1.34376164621670    2.55897823926389   -2.67762109636575
O         0.29788655823939    2.96810202450251   -1.80178723929674
O         1.72900159257236    0.27568835943732   -2.28022355073716
H        -0.49332664178437    2.92652549144118   -2.35659973340016
H         2.33249344659403    1.81579012879083   -1.03508974462717
H         3.09327973190761    1.67918700741650   -2.66467623952199
H         0.74081829394600   -1.33479362652196   -1.65049250553168
H        -0.35307147052997   -0.36358501003704    0.28938785404808
H         0.38153121011257    1.27594644215906   -0.05209228298039
12
Properties=species:S:1:pos:R:3 -21.435341264811=T 6.2.3=T gnorm:=T pbc="F F F" energy:=T xtb:=T 830e466=T 0.000478661181=T
C       2.15474297       1.45000962      -2.20194226 
C       0.16100779       0.32422140      -0.49785735 
C       0.93385651      -0.35517757      -1.33148163 
O       0.33395188       3.25163207      -2.30346348 
O      -0.23508529       3.22205493      -1.17511402 
O       1.74638466       0.14189179      -2.29787848 
H       1.29850728       2.17793543      -2.45686403 
H       2.47812931       1.73128441      -1.19507042 
H       2.93176902       1.62191855      -2.94513408 
H       0.95372221      -1.43733493      -1.35298351 
H      -0.42353280      -0.19187549       0.24037811 
H       0.05583646       1.40314978      -0.51849887 
