12
 energy: -21.518497070733 gnorm: 0.000843148670 xtb: 6.2.3 (830e466)
C         0.51273771497543    1.17077439619420   -2.61550358495648
C        -0.72455873219364    0.73992483843385   -2.47101587615622
C         2.82888409558829    0.74876101776598   -0.59127752685428
O         1.21739573453945    1.99250877285531   -1.78061913704712
O         0.47696772610961    2.44923941173636   -0.67732905738009
O         2.20487738837664    0.79209189014737    0.43754033078930
H         0.87495535576866    1.98207429091815    0.09206121059850
H         2.76557698815414   -0.10685254629714   -1.28085282459851
H         1.15940430805805    0.92778471444654   -3.44713557372595
H         3.56385886983797    1.51711901530702   -0.87042049495662
H        -1.16801518400963    0.09678670894581   -3.20536038450684
H        -1.32287426520488    1.02969748954591   -1.62599708120865
12
Properties=species:S:1:pos:R:3 6.2.3=T gnorm:=T 0.000326597614=T pbc="F F F" energy:=T xtb:=T -21.632032881164=T 830e466=T
C       0.88588769       0.75906328      -2.92640259 
C      -0.22448081       0.74601920      -2.21651739 
C       2.52172485       0.12520159      -1.32642628 
O       2.09856078       0.17835152      -2.57236407 
O       0.52741765       3.06905824      -0.16192672 
O       2.00707650       0.58119452      -0.34474751 
H       0.51898357       3.35832726       0.75213300 
H       3.48683674      -0.40980884      -1.31269661 
H       0.96629913       1.19700702      -3.91075477 
H       1.00143548       2.22721968      -0.17320637 
H      -1.11102573       1.21475973      -2.59949137 
H      -0.28950585       0.29351679      -1.24350932 
