12
 energy: -21.564899682795 gnorm: 0.000236602332 xtb: 6.2.3 (830e466)
C         0.93309664087944    1.63552055396151   -2.54079312426533
C         0.06856459525710    0.60809686045931   -1.85429897444636
C         0.48851578543151   -0.22694198182925   -0.90715949999223
O         1.27261183552168    2.76600054020819   -1.75743190002695
O         2.33057328930824    2.42924680913442   -0.85292147617946
O         1.71428324259950   -0.28813796750837   -0.36103494477592
H         2.22612155010977    3.08667866814047   -0.15366639592183
H         1.85799632992702    1.18355877177485   -2.92696655918617
H         0.38902518277658    2.08468551644224   -3.37382323399468
H        -0.17293749010745   -0.96913072347730   -0.48114218458100
H         2.24181516624328    0.47235703115638   -0.66044267135408
H        -0.96028612794726    0.55795592153773   -2.16612903527616
12
Properties=species:S:1:pos:R:3 6.2.3=T gnorm:=T pbc="F F F" -21.500288865768=T energy:=T xtb:=T 830e466=T 0.000367762307=T
C       1.32771970       1.07011967      -2.72920649 
C       0.97906539       0.21453178      -1.81689483 
C       0.63591286      -0.64201302      -0.89902991 
O       0.60827363       3.22602605      -0.52445397 
O       1.55002937       3.96814124      -1.28743083 
O       0.77577767      -1.99984253      -0.96308811 
H       1.55832621       4.81663711      -0.82695881 
H       2.30870354       1.52251996      -2.74703826 
H       0.64735103       1.38608951      -3.50698217 
H       0.18605947      -0.33486241       0.03560440 
H       1.17884949      -2.24736121      -1.80305547 
H       0.63331162       2.35990385      -0.96727555 
