12
 energy: -21.579036496954 gnorm: 0.000952128895 xtb: 6.2.3 (830e466)
C         1.89593684596780    1.37592501708123   -2.21730318480883
C         0.02435925696064    0.09487293614567   -1.03735045969367
C         1.45095051039263    0.10586684555998   -1.48761713179314
O         0.99624258667155    2.44988468251326   -2.17614158032473
O         0.94844892922517    3.00268395608049   -0.86254017907411
O         2.22721548610045   -0.79780297668308   -1.31941585757234
H         0.94658035771880    3.95559644859323   -1.02653554767866
H         2.88709390832131    1.66921577274661   -1.84801312699828
H         1.97793000854713    1.14750644371894   -3.28468911152301
H        -0.10058643662946    0.85362184539378   -0.26637518012391
H        -0.24082155419383   -0.88090298978657   -0.64173857427818
H        -0.62415989908228    0.36344201863631   -1.86819006613120
12
Properties=species:S:1:pos:R:3 -21.539775726049=T 6.2.3=T gnorm:=T pbc="F F F" 0.000817107367=T energy:=T xtb:=T 830e466=T
C       2.42962633       2.00906254      -2.11585229 
C      -0.46629428      -0.40558695      -0.79737392 
C       0.57949103      -1.01638107      -1.23114680 
O       1.09356995       2.37078503      -2.35865688 
O       0.45454807       2.76022356      -1.15216650 
O       1.54157151      -1.54944615      -1.61570585 
H       0.27513786       3.70417766      -1.26970334 
H       3.01817306       2.85924607      -1.75421319 
H       2.79350349       1.68983225      -3.09072680 
H       2.49881031       1.18200398      -1.40499962 
H      -1.34298069      -0.93193331      -0.47918510 
H      -0.48596663       0.66792640      -0.76617972 
