10
 energy: -20.588180182890 gnorm: 0.000659088346 xtb: 6.2.3 (830e466)
C         1.40502903330881    1.64084907213663   -2.83800700228801
C         0.69481061483134    0.59361084856474   -1.99182683496012
C         1.80185475881496    0.22905054538155   -1.00715688782702
O         2.40385323944758    2.17883004876526   -1.98254441382937
O         2.76877131481465    1.16053040059042   -1.07406731731919
O         1.86870670173015   -0.70684730245831   -0.27435824087197
H         1.87155489285207    1.19069382680887   -3.72456327985919
H         0.78225241041886    2.48481971058650   -3.13412477821937
H         0.35968174589110   -0.27927157326297   -2.54538979294170
H        -0.14481471210949    1.00253442288732   -1.42685145188405
10
Properties=species:S:1:pos:R:3 6.2.3=T gnorm:=T pbc="F F F" 0.000648257657=T -20.637198117081=T energy:=T xtb:=T 830e466=T
C       1.00279533       1.98678512      -2.68438433 
C       0.67351935       0.69340906      -2.01926547 
C       1.83253917       0.20653538      -1.11154906 
O       2.04842207       2.19212921      -3.25322240 
O       3.04061649       0.35519075      -1.62109338 
O       1.61457023      -0.28897014      -0.04766976 
H       3.03640505       0.91864639      -2.42927583 
H       0.23535171       2.77383677      -2.61048541 
H       0.57223567      -0.08267266      -2.78453502 
H      -0.24475508       0.73991012      -1.43740933 
