10
 energy: -20.529765201089 gnorm: 0.000703497064 xtb: 6.2.3 (830e466)
C         1.29162095824916    1.63087191074398   -2.55689167212030
C         1.04382941602259    0.47502078579014   -1.61617920943672
C         1.90393907663759    0.11845983876470   -0.71571630654134
O         0.85427320118875    2.86579148723294   -2.04437722000762
O         1.73769374152204    3.28133750419768   -1.00203792167640
O         2.69726403160190   -0.24208345527095    0.05085380207918
H         1.22887421323854    3.97777091463101   -0.56632862466606
H         2.35428469900393    1.69603198993638   -2.81426705820986
H         0.69429276862131    1.51574027816543   -3.46328426519699
H         0.05501789391418    0.05125874580864   -1.59397152422390
10
Properties=species:S:1:pos:R:3 6.2.3=T gnorm:=T pbc="F F F" energy:=T xtb:=T -20.592564179558=T 0.000851673365=T 830e466=T
C       1.30814802       1.56800621      -2.50366992 
C       1.89699469       1.54668943      -1.10236103 
C       2.24722667       0.41320780      -0.56657148 
O       0.01018153       2.11221621      -2.48769505 
O       1.90658215       2.75615830      -0.42830588 
O       2.61463981      -0.64399590      -0.22611914 
H       1.24719704       3.31811973      -0.85993197 
H       1.89854654       2.24552424      -3.12853332 
H       1.33142091       0.56486875      -2.94207308 
H      -0.59984738       1.48940524      -2.07693912 
