12
 energy: -21.571670148362 gnorm: 0.000404265329 xtb: 6.2.3 (830e466)
C         0.38341160039565    1.15494702106172   -2.31953714869039
C         0.62668978138193   -0.29107376519539   -1.91133877823766
C         1.66526294338080   -0.10398142537584   -0.80936273137644
O         0.70844203077783    1.91430659754169   -1.16352410190437
O         1.68791434646469    1.18998622894693   -0.44723404573433
O         2.37641697391381   -0.91755033949844   -0.30997588977987
H         2.11966190538287    4.93856603712850   -0.63833571145661
H         1.03092161068730    1.45004568799293   -3.15600633955890
H        -0.65444340467052    1.39459550607577   -2.55040647361110
H         1.68996370622501    4.29632584719401   -0.54944440459147
H         1.00963602082631   -0.92359398989665   -2.70752913629338
H        -0.25487751476675   -0.76277340595758   -1.47319523875798
12
Properties=species:S:1:pos:R:3 -21.600509924716=T 6.2.3=T gnorm:=T pbc="F F F" 0.000661087256=T energy:=T xtb:=T 830e466=T
C       0.67242673       1.40439317      -2.85011950 
C       0.55450710       0.40576624      -1.69488368 
C       1.84205585       0.38108504      -0.92014573 
O       0.98817874       2.28693495       0.16256190 
O       2.04560181       1.35870394      -0.00343786 
O       2.73024258      -0.40996502      -1.04905858 
H       0.82869924       2.41075499      -2.47129429 
H       1.50590307       1.13672188      -3.49446091 
H      -0.24077445       1.39440134      -3.43858640 
H       1.34481259       2.87324497       0.84546200 
H       0.38276212      -0.59717391      -2.08489426 
H      -0.26541539       0.69493240      -1.03703268 
