12
 energy: -21.604376949090 gnorm: 0.000832223953 xtb: 6.2.3 (830e466)
C         1.29873343192958    1.22285212813630   -2.80814455374200
C         0.15625380355682    0.99461382350545   -1.81969511034839
C         0.98577464020917    0.87761879268297   -0.53896551053266
O         2.35337283589306    0.41595356948994   -2.33777875840205
O         1.18547786625518    2.15774898059540   -0.01938146058108
O         2.18253455625456    0.26464381462020   -0.91791823563733
H         1.92092028217596    2.13359973774789    0.60451550271200
H         1.59364477529335    2.28083138662599   -2.81226941748881
H         1.08146923319247    0.88580764815057   -3.82164178035206
H         0.53591339749213    0.21800295782529    0.22008908249989
H        -0.36709963119910    0.06176762407301   -2.02067269294521
H        -0.53769519105318    1.82656953654699   -1.76371706518231
12
Properties=species:S:1:pos:R:3 6.2.3=T gnorm:=T pbc="F F F" 0.000935531649=T energy:=T xtb:=T -21.678650142495=T 830e466=T
C       1.84974817       1.12425852      -2.72233936 
C      -0.09778970       0.86996121      -1.66939426 
C       1.05160379       0.88073741      -0.63529802 
O       0.54892931       0.65812245      -2.90454620 
O       0.99731827       2.08009142       0.06833233 
O       2.21550734       0.75933537      -1.41437179 
H       1.79257487       2.16584164       0.60881715 
H       1.89585794       2.22408971      -2.83655136 
H       2.51907571       0.63726877      -3.43344598 
H       1.02990558       0.02235055       0.05269910 
H      -0.81920059       0.07022426      -1.51174106 
H      -0.59423069       1.84772870      -1.63774055 
