10
 energy: -20.526975634581 gnorm: 0.000938120802 xtb: 6.2.3 (830e466)
C         1.07535001078372    1.72639742281417   -1.20054776757852
C         1.28413063721058    0.31903595841085   -1.67828042383955
C         2.40695138458289   -0.31421729314982   -1.54930513991801
O         1.16149230703323    2.55184652535463   -2.34560509516234
O         1.00782326820961    3.91372180781516   -1.94131131602500
O         3.39103733203724   -0.90731596989737   -1.39084441283470
H         1.15215017879471    4.38279220708608   -2.77328811381544
H         1.84319717789993    2.01883608322497   -0.47416895522673
H         0.08425507881722    1.83527095206109   -0.74131804113424
H         0.49491262463081   -0.12886769371982   -2.25754073446538
10
Properties=species:S:1:pos:R:3 6.2.3=T gnorm:=T pbc="F F F" energy:=T 0.000728849294=T xtb:=T -20.462129209550=T 830e466=T
C       2.23211060       2.16429186      -1.14773808 
C       2.51662885       0.87436289      -1.07138111 
C       2.40393438      -0.35270746      -1.37983529 
O       1.30425741       2.61929498      -1.99915591 
O       1.14497498       4.02876323      -1.93371006 
O       2.47641777      -1.51218089      -1.49208726 
H       0.42540338       4.19322558      -2.55862369 
H       2.72148946       2.91844191      -0.53955975 
H      -1.03554373       0.13922651      -2.17234112 
H      -0.28837310       0.32478139      -2.05777772 
