12
 energy: -21.579059831495 gnorm: 0.000396113565 xtb: 6.2.3 (830e466)
C         1.96072378815379    1.23809436719671   -2.16202087841718
C         0.11799613233526    0.18322517297197   -0.73871308531343
C         1.58578355259758    0.33938789925380   -0.98078815643998
O         0.91032844122822    1.98165054092040   -2.71944116994336
O         0.49728229670737    3.00738057760298   -1.82243733843743
O         2.44681304592335   -0.18912145475652   -0.32681992887678
H         0.50696050961206    3.80381419246588   -2.37065856610886
H         2.79746983104140    1.88448368387815   -1.86510313161137
H         2.29290755654990    0.59981006683059   -2.98724850969991
H        -0.37768955987045   -0.10386512506317   -1.66376760512662
H        -0.28778795077379    1.14814855952709   -0.43744874966551
H        -0.06168764350428   -0.55311848082786    0.03863711964042
12
Properties=species:S:1:pos:R:3 6.2.3=T gnorm:=T pbc="F F F" energy:=T -21.525864994080=T 0.000460030430=T 830e466=T xtb:=T
C       1.74878003       1.41508150      -2.48025665 
C       0.24972358       0.08320796      -0.88811802 
C       1.35161069       1.12772621      -1.00036498 
O       1.50113899       2.79614664      -2.63554243 
O       0.49891800       3.08072321      -1.68866692 
O       0.94188882       2.40690333      -0.53831191 
H       2.21436964       0.85795416      -0.38493584 
H       2.80717698       1.25827128      -2.68507788 
H       1.13236265       0.82012394      -3.16308569 
H       0.59816383      -0.86613055      -1.28540050 
H      -0.62970037       0.40602187      -1.44124071 
H      -0.02533284      -0.04613956       0.15519153 
