10
 energy: -20.529550889716 gnorm: 0.000835853824 xtb: 6.2.3 (830e466)
C         1.20399609814919    1.52930443649825   -2.39998634457116
C         1.27485730334009    0.68721511984436   -1.14703089657041
C         2.22716194784574   -0.15426971776225   -0.91067213849929
O         1.68207528978101    2.83732858056232   -2.22037072052138
O         0.77393279533071    3.56491650827056   -1.38962801925458
O         3.05796683873141   -0.94534970398783   -0.72487165032729
H         1.28070230830411    4.36098617986920   -1.18431940091684
H         1.85902722439489    1.13343762819158   -3.17853210220860
H         0.16864298297719    1.56124014254227   -2.75993244399348
H         0.55003721114565    0.90480082597147   -0.38115628313691
10
Properties=species:S:1:pos:R:3 -20.610188248451=T 6.2.3=T gnorm:=T 0.000602957061=T pbc="F F F" energy:=T xtb:=T 830e466=T
C       0.81489782       1.94204554      -2.07003975 
C       1.02916670       0.82896436      -1.04156029 
C       2.15537962       0.21988122      -0.87753354 
O       1.64633266       1.82721875      -3.17552246 
O       0.89689839       3.19459134      -1.45994445 
O       3.18989207      -0.30339857      -0.77473745 
H       1.78682291       3.34502546      -1.11515122 
H       2.57198979       1.93209380      -2.92084776 
H      -0.20628452       1.87655403      -2.45962626 
H       0.19330455       0.61663407      -0.40153682 
