12
 energy: -21.579054460207 gnorm: 0.000451720869 xtb: 6.2.3 (830e466)
C         1.74696911226437    1.40654113872035   -2.35230300000046
C         0.26180120968312    0.02445617320192   -0.79717709744005
C         1.60672681772428    0.19234621858427   -1.43064328204223
O         0.69043289715106    2.32769176472000   -2.31137419885241
O         0.69160701532500    3.02795561882971   -1.07076117839608
O         2.53818277217849   -0.55118608298714   -1.26418770845471
H         0.60197988886785    3.95339808334993   -1.33678828502751
H         2.71138556238349    1.89298293712462   -2.15543174066450
H         1.74281659521254    1.05342486941971   -3.38863914648375
H         0.20958015331122   -0.91929059067742   -0.26262792726584
H        -0.51240788442053    0.08020839929355   -1.55933884093167
H         0.10023586031917    0.85116147042055   -0.10671759444083
12
Properties=species:S:1:pos:R:3 -21.670173725876=T 6.2.3=T gnorm:=T pbc="F F F" energy:=T 0.000708786660=T 830e466=T xtb:=T
C       1.64331016       1.05664522      -2.29600185 
C      -0.38270293       0.39792994      -1.27088791 
C       2.46369120       1.71573189      -1.17514724 
O       0.26402866       1.30992953      -2.13599702 
O       1.79984741       2.69298272      -0.56153130 
O       3.58269399       1.39771900      -0.89922897 
H       0.90655723       2.76431883      -0.95525531 
H       1.94315461       1.51690668      -3.24338891 
H       1.86696092      -0.01410959      -2.34243665 
H      -0.32460791      -0.62084588      -1.66655756 
H      -1.42430748       0.70875714      -1.22405755 
H       0.05068415       0.41372451      -0.26549974 
