12
 energy: -21.579061536314 gnorm: 0.000301109013 xtb: 6.2.3 (830e466)
C         1.93892750697106    1.48811633416907   -2.08946858522686
C        -0.00726503346405    0.03258126483897   -1.29831705147892
C         1.45485436703428    0.12003393908346   -1.60161939396334
O         1.01864220366741    2.53979783083631   -1.96463657597850
O         0.83186186025595    2.87840257166643   -0.59522388319053
O         2.23198433649467   -0.79258183976989   -1.49337634508699
H         1.00396345105593    3.82962107180892   -0.57062815771806
H         2.89075360107782    1.72571702691383   -1.59611313489405
H         2.11470102401208    1.42517560064558   -3.16828117044794
H        -0.28732652306700   -0.99230285604786   -1.07421056696129
H        -0.57982792122845    0.41372782073010   -2.14108324713840
H        -0.22206887280972    0.67161123512510   -0.44283188791512
12
Properties=species:S:1:pos:R:3 -21.546534585814=T gnorm:=T pbc="F F F" energy:=T 0.000470467606=T xtb:=T 6.2.3=T 830e466=T
C       2.38628854       1.34225580      -1.99205576 
C       0.63773809       0.45848596      -0.62200131 
C       1.69886388       0.03385258      -1.62699251 
O       1.59600181       2.35782463      -1.44484847 
O       0.91200099       1.79430546      -0.31204275 
O       1.93498421      -1.06182442      -2.03221412 
H      -1.73757473       2.47971086      -2.48812729 
H       3.40443191       1.33502778      -1.57282209 
H       2.43328388       1.49047454      -3.07230887 
H      -0.35455968       0.33554194      -1.08208664 
H      -1.21586978       2.89856306      -2.08973823 
H       0.69361090      -0.12431818       0.29944805 
