12
 energy: -21.604376608989 gnorm: 0.000561552891 xtb: 6.2.3 (830e466)
C         1.23683824333966    1.20942444271118   -2.81900465406250
C         0.14169606282112    0.99260553329891   -1.77639737428282
C         1.03153767689319    0.88643070289486   -0.53577610585449
O         2.30711235582093    0.39893565454483   -2.39431533132621
O         1.25608298834204    2.17171890508658   -0.03917664324213
O         2.20799549806480    0.26834733693513   -0.96493024479558
H         2.02437540517378    2.15714414663492    0.54359340090652
H         1.53647123365878    2.26605953599665   -2.84257382788488
H         0.96976894180758    0.86868129136402   -3.81950076565757
H         0.61654350411024    0.23616318863754    0.25095097627849
H        -0.39147124141491    0.05871373384480   -1.94381905435798
H        -0.54785066861720    1.82596552805058   -1.69474037572084
12
Properties=species:S:1:pos:R:3 -21.686038511979=T 6.2.3=T gnorm:=T pbc="F F F" energy:=T xtb:=T 830e466=T 0.000865459147=T
C       1.26899379       1.22646792      -2.64335871 
C      -0.08248599       0.99406251      -1.93733473 
C       1.64822936       0.65261467      -0.49183736 
O       2.21301813       0.64365389      -1.76473973 
O       1.95823786       1.78485903       0.23146278 
O       0.27297356       0.48862425      -0.66084317 
H       1.58815669       2.56857146      -0.19623354 
H       1.47641782       2.29555928      -2.78558064 
H       1.34792343       0.71439088      -3.60276011 
H       2.05297043      -0.18415921       0.08664795 
H      -0.69252324       0.23775989      -2.43693183 
H      -0.66281184       1.91778545      -1.83418093 
