12
 energy: -21.513366064895 gnorm: 0.000589700218 xtb: 6.2.3 (830e466)
C         1.91290776115016    1.27792303157370   -2.34345768593405
C         2.09082643427958    0.70772340881721   -0.95558641127657
C         1.84944763127689   -0.52803096332004   -0.66051071397708
O         0.67116002864451    1.90736113847997   -2.53256859517769
O         0.63275213503191    3.12203158244442   -1.78118338931538
O         1.68446953670863   -1.65150835336421   -0.41366850666541
H        -0.31168765880334    3.32398386298255   -1.76812806280100
H         2.72141725490917    1.98776547135562   -2.55306146766956
H         1.90473324478098    0.48758398089318   -3.09688849705900
H        -1.28998744074369    0.58838276274572   -1.17722721166136
H        -1.78081339888258    0.70528573274497   -0.58512768993323
H         2.30418447163715    1.41119834464597   -0.16860176852008
12
Properties=species:S:1:pos:R:3 -21.619192743561=T gnorm:=T 0.000610349284=T pbc="F F F" energy:=T xtb:=T 6.2.3=T 830e466=T
C       1.54035517       0.83039962      -2.42811654 
C       1.79299610       0.56418073      -0.96401785 
C       2.10416791      -0.59207904      -0.47925625 
O       0.18249299       1.14156470      -2.68636110 
O      -0.16663650       3.09188455      -0.61926481 
O       2.41676658      -1.62642245      -0.04859826 
H      -0.53311314       3.93520202      -0.88760833 
H       2.09755662       1.71462179      -2.74700194 
H       1.85622847      -0.02849706      -3.03110906 
H      -0.36592856       0.38675817      -2.44143583 
H      -0.13656612       2.53769750      -1.41313955 
H       1.60109049       1.38438949      -0.29010048 
