10
 energy: -20.529550997568 gnorm: 0.000946598668 xtb: 6.2.3 (830e466)
C         1.89250201576377    1.77130042470856   -2.22027789879906
C         1.83933770843615    0.91421431134522   -0.97755210383269
C         1.61946917204505   -0.35982534517396   -1.00044517348835
O         0.68324832755116    2.42618189254055   -2.50180451704351
O         0.44656723571768    3.43133995210952   -1.51298108906309
O         1.48239717391340   -1.51370951052524   -1.02622782592915
H        -0.40477884192139    3.79162902406880   -1.79092086459487
H         2.69753015057801    2.50945630626692   -2.11844817485315
H         2.05325047378618    1.16185724783846   -3.11182409331296
H         1.86028658412999    1.43124569682113   -0.03380825908318
10
Properties=species:S:1:pos:R:3 0.000544100483=T 6.2.3=T gnorm:=T -20.595295571453=T pbc="F F F" energy:=T xtb:=T 830e466=T
C       1.64457564       2.45445027      -2.45058859 
C       1.25873387       0.67245718      -0.98234863 
C       1.64054427      -0.55346123      -0.77922932 
O       1.02259345       1.21478724      -2.24480177 
O       1.13755322       3.45838815      -1.63423131 
O       1.89620731      -1.65818888      -0.51603990 
H       0.19057877       3.55307573      -1.79751565 
H       2.72078183       2.40852442      -2.23599963 
H       1.48500270       2.66894757      -3.51687704 
H       1.17323892       1.34470955      -0.13665815 
