12
 energy: -21.540036824893 gnorm: 0.000566739663 xtb: 6.2.3 (830e466)
C         1.44055837931065    1.63626473928113   -3.11346281343475
C         0.49165394475387   -0.10299122110958    0.16753545764430
C         1.59279115436783   -0.67061140124590   -0.18049608143092
O         0.98774991933630    2.89425475628918   -2.69487269309202
O         0.36444101326930    2.76967214176524   -1.41257801520155
O         2.59281205791706   -1.16689748730551   -0.51177318758613
H         0.18528299867480    3.69084447671310   -1.18582386783021
H         2.19762867200348    1.23518686257607   -2.43352630800946
H         1.87932611378171    1.82854028816047   -4.09082635635763
H         0.61446356052830    0.92543748487638   -3.20544693865711
H        -0.20053249978473   -0.56981906938092    0.83935458018886
H         0.24302468584066    0.87023842937986   -0.21390377623163
12
Properties=species:S:1:pos:R:3 -21.513604920761=T 6.2.3=T gnorm:=T pbc="F F F" 0.000558503304=T energy:=T xtb:=T 830e466=T
C       1.80264913       1.09023875      -2.65101910 
C       1.39912092      -0.01223922      -1.69958780 
C       1.83167576      -0.06649717      -0.47982524 
O       0.97970819       2.22801652      -2.55919958 
O       1.26660270       2.91942270      -1.34464763 
O       2.25619097      -0.14442113       0.59758017 
H       0.44803158       3.40599057      -1.18113748 
H       2.84640445       1.37877787      -2.48532955 
H       1.66398625       0.76722081      -3.68433915 
H      -1.71602476       1.37547852      -0.29595443 
H       0.61068734      -0.67691312      -2.00759550 
H      -0.99983255       1.07504491      -0.24476468 
