12
 energy: -21.541159648150 gnorm: 0.000316472238 xtb: 6.2.3 (830e466)
C         1.12237981917410    1.44678082183402   -3.50286427923772
C         0.17177848764304   -0.27464002857552    0.32679711268319
C         0.99139445046499    0.70041503140998    0.50278207891172
O         0.99928220923170    1.91430487439874   -2.18658361207907
O         2.09664034033577    2.77708914965022   -1.89534747409477
O         1.73693849098012    1.57925968399208    0.67367063164110
H         2.23638758581572    2.62774559302513   -0.94524778765504
H         2.03099244326742    0.85038088318922   -3.63062180539201
H         1.12423871573056    2.27450450698307   -4.21699820263885
H         0.24112280796823    0.82577202413667   -3.65343479085591
H         0.22436767887147   -1.16530392001488    0.92043845388384
H        -0.58642302948227   -0.21621862002858   -0.42840032516626
12
Properties=species:S:1:pos:R:3 6.2.3=T gnorm:=T -21.670173592043=T pbc="F F F" energy:=T xtb:=T 0.000827500832=T 830e466=T
C       0.95675408       0.98518366      -3.09958005 
C       0.41313144       0.73518501      -0.81232362 
C       1.66202240       1.20621555      -0.04876512 
O       0.22726251       1.48251212      -1.99546742 
O       2.03975655       2.43482964      -0.39431483 
O       2.22040696       0.54784514       0.77850040 
H       1.44134260       2.76297388      -1.09471016 
H       2.03285537       0.95944843      -2.89790538 
H       0.75620705       1.66173746      -3.92724807 
H       0.62148359      -0.02231682      -3.36380258 
H       0.47478170      -0.34097073      -1.00424646 
H      -0.45690426       0.92744666      -0.17594672 
