12
 energy: -21.539817483059 gnorm: 0.000864136948 xtb: 6.2.3 (830e466)
C         1.46275827239913    1.07642632216358   -3.24990239267533
C         0.50485513323694    0.68775943027464    0.64969792663533
C         1.06131998020983   -0.37874203541673    0.19449104574622
O         0.41907160581042    1.89478918443877   -2.78345247112525
O         0.90509813047532    2.83458759286987   -1.83727528564416
O         1.57894953578867   -1.32849768320858   -0.23851245099088
H         0.81670523214355    3.69008185680265   -2.28157354294300
H         2.21719282152256    1.65608070888099   -3.79212901869735
H         0.96641504543405    0.38383800958180   -3.92678740481136
H         1.93558736341426    0.52516093740501   -2.43387176320268
H         0.48566307873410    1.57980285065672    0.05189976872617
H         0.03568380083081    0.71870282555125    1.61151558898329
12
Properties=species:S:1:pos:R:3 6.2.3=T gnorm:=T pbc="F F F" energy:=T -21.534344975653=T xtb:=T 830e466=T 0.000645546845=T
C       1.49662080       0.56089074      -3.33330510 
C       0.42310235       1.17555102       0.33440318 
C       1.16029224       0.12522115       0.06716437 
O      -0.06805621       2.02529715      -0.59892098 
O       0.83610895       3.15754830      -0.80714880 
O       1.74001861      -0.86238520      -0.08815625 
H       0.53637434       3.49570710      -1.65980723 
H       2.24949338       1.18159909      -2.86339281 
H       1.41716033       0.81972924      -4.38161825 
H       1.77956377      -0.47984308      -3.23979564 
H       0.54127541       0.71816888      -2.84883727 
H       0.27734603       1.42250561       1.38351478 
