12
 energy: -21.638945313623 gnorm: 0.000569267506 xtb: 6.2.3 (830e466)
C         1.72770787202373    2.01244682977328   -2.27347105474200
C         0.20391645661380    0.53734779595782   -1.23465313764938
C         1.10215312585575   -0.50667760607269   -0.61503651554271
O         0.68537185628541    1.08834922119563   -2.43871546581459
O         1.30117337010378    3.19045946186014   -1.66303351787809
O         2.18116757762977   -0.83759847638105   -1.00861413137124
H         0.62800419196274    3.60734480718583   -2.21465946518518
H         2.10996461473770    2.18967755457795   -3.28712792949140
H         2.52853657033909    1.61647730487455   -1.63953984767201
H         0.64690484001773   -0.95607376457187    0.29178023290145
H        -0.75925769512234    0.07371254984472   -1.46955988958452
H         0.03345721955289    1.32444432175561   -0.48318927797015
12
Properties=species:S:1:pos:R:3 6.2.3=T gnorm:=T -21.650337908214=T pbc="F F F" energy:=T xtb:=T 830e466=T 0.000798843403=T
C       1.28189869       1.92860895      -1.70300652 
C       0.46796560       0.88370896      -0.91438172 
C       1.13383402      -0.45396563      -0.86960164 
O       1.51943589       1.53097552      -3.01885052 
O       0.56659008       3.12281245      -1.73369723 
O       2.06352200      -0.78856867      -1.55417501 
H       0.66540981       3.48658729      -2.62177499 
H       1.97901248       0.67836513      -2.99935206 
H       2.24686116       2.09150315      -1.17698735 
H       0.68807354      -1.15258286      -0.13730021 
H      -0.50462187       0.76055118      -1.40130994 
H       0.28111859       1.25191452       0.09461719 
