12
 energy: -21.638944230174 gnorm: 0.000378028515 xtb: 6.2.3 (830e466)
C         1.69997101079981    2.08406895673455   -2.20513871848824
C         0.19574470353027    0.54623677871908   -1.23216779773720
C         1.08619670983044   -0.62419948388307   -0.88880614804993
O         0.57894497772636    1.26044508967009   -2.38483484780083
O         1.43695281760570    3.16338682787702   -1.36301143997342
O         2.08875285802776   -0.94335098972118   -1.45616612775599
H         0.74013732148321    3.70588316650018   -1.75252538638247
H         2.53665920817008    1.54242128364633   -1.75042830068001
H         1.97533355795294    2.40961226776714   -3.21690451210289
H         0.70737600689900   -1.18571517153526   -0.00951141172508
H        -0.81468627546320    0.17140103862289   -1.42237331548199
H         0.15771710343755    1.20990023560233   -0.35385199382217
12
Properties=species:S:1:pos:R:3 6.2.3=T gnorm:=T pbc="F F F" energy:=T 0.000815701129=T xtb:=T 830e466=T -21.638792983977=T
C       1.79896440       1.93056293      -1.67419920 
C       0.67612591       0.99738722      -1.15094631 
C       1.17030525      -0.42181146      -1.08345679 
O      -0.44557397       1.10037870      -1.98709424 
O       1.38817669       3.26312221      -1.63805847 
O       0.69054991      -1.29943786      -1.74860467 
H       0.52436220       3.31518737      -2.06991647 
H       2.68515860       1.85345880      -1.04116136 
H       2.05484208       1.62545061      -2.69968285 
H       2.01545895      -0.59004209      -0.39732507 
H      -0.57048533       0.23245108      -2.40525870 
H       0.40121532       1.33338250      -0.14001586 
