12
 energy: -21.638943793486 gnorm: 0.000182576473 xtb: 6.2.3 (830e466)
C         1.67453046483745    2.10093369458158   -2.20663208960350
C         0.21555234443559    0.51455536735682   -1.24295722221000
C         1.14689858002342   -0.60928678239439   -0.85552548543073
O         0.59696130804360    1.22385743510691   -2.39918052044008
O         1.34156872500301    3.18049017711966   -1.39028964437450
O         2.17470611700813   -0.89623536367644   -1.39436571876674
H         0.62922889663896    3.68258760586536   -1.80504161483602
H         2.52312907740344    1.60575421534352   -1.72203729041438
H         1.95998267698534    2.42203889639252   -3.21699605510208
H         0.77255292447070   -1.16861606222674    0.02735024888220
H        -0.77235171341189    0.09214896117464   -1.45118794938065
H         0.12614059856207    1.19168185535651   -0.37884665832341
12
Properties=species:S:1:pos:R:3 6.2.3=T gnorm:=T pbc="F F F" 0.000891833657=T energy:=T xtb:=T 830e466=T -21.658762292601=T
C       1.45876481       2.15929424      -1.85374122 
C       0.36686541       1.13226962      -1.50276451 
C       1.38677825      -0.96867819      -1.13903702 
O       0.72349971      -0.15824422      -1.95705721 
O       1.12839921       3.44460524      -1.40529497 
O       1.78882789      -2.04023226      -1.46191708 
H       0.36159541       3.76967783      -1.89041926 
H       2.38959189       1.89320414      -1.34553673 
H       1.63605143       2.13968136      -2.93738950 
H       1.51586701      -0.55066220      -0.11617812 
H      -0.56925716       1.38661794      -2.00863251 
H       0.20191613       1.13237649      -0.41774186 
