12
 energy: -21.640200097609 gnorm: 0.000664163500 xtb: 6.2.3 (830e466)
C         1.10572050730638    2.20901065094189   -2.62742045027474
C         1.35947538686446    0.43525468952219   -1.10116279431666
C         0.59081583865215   -0.65885920868392   -0.41296448042183
O         0.52564391815531    1.07713409354636   -2.04408196540766
O         1.29134594547257    3.25174826137170   -1.72710759394038
O         1.04209097437259   -1.39343152585291    0.41654306100090
H         0.43624177122124    3.51632848387575   -1.36563262551980
H         2.10307396209259    1.98259886161699   -3.03044722503750
H         0.42771390062274    2.48669294286937   -3.44612275217892
H        -0.45806774573734   -0.72101662295042   -0.75381936189031
H         2.24400389087334    0.00337872008015   -1.59539092078647
H         1.72105165010407    1.15125065366292   -0.34810289122665
12
Properties=species:S:1:pos:R:3 6.2.3=T gnorm:=T pbc="F F F" 0.000535087933=T energy:=T xtb:=T -21.633833845365=T 830e466=T
C       1.22971727       1.27507472      -3.04403157 
C       0.61463456       1.35669646      -0.75993324 
C       0.99427046      -0.09326848      -0.45851660 
O       0.20985339       1.53174030      -2.09179370 
O       1.64757268       2.20533082      -0.38588939 
O       1.82658357      -0.45339147       0.31441034 
H       1.37431380       3.12217899      -0.51062489 
H       2.12537812       1.86296666      -2.82665599 
H       0.81833547       1.56917355      -4.00652905 
H       0.35830043      -0.79900952      -1.02980459 
H       1.49659657       0.21424618      -3.06246286 
H      -0.30644631       1.54835179      -0.17387846 
