12
 energy: -21.638946411165 gnorm: 0.000622386544 xtb: 6.2.3 (830e466)
C         1.67699290439194    2.15333083593773   -2.12312897824523
C         0.21356360775128    0.50355237525564   -1.27930094077088
C         1.13207991403023   -0.66618607953943   -1.01593015950829
O         0.58605153722789    1.30822182907588   -2.37428200439851
O         1.36513746865432    3.16818381172067   -1.21950566401905
O         2.14562476237190   -0.91642502873834   -1.59814970407639
H         0.65752842190977    3.71189094432659   -1.58725792965724
H         2.52322892722702    1.60997953652512   -1.68735743424098
H         1.95808138124472    2.55052068345930   -3.10733481016375
H         0.76317213196508   -1.30133679854365   -0.18359548472586
H        -0.78560105342008    0.11800944955176   -1.50448037560139
H         0.15313999664596    1.10054844096867   -0.35535651459239
12
Properties=species:S:1:pos:R:3 -21.684384227176=T gnorm:=T 0.000404689489=T pbc="F F F" energy:=T xtb:=T 6.2.3=T 830e466=T
C       1.49351964       1.77357548      -2.35997483 
C      -0.00671524       0.59352319      -1.15723565 
C       1.42816652       0.07422690      -0.92137062 
O       0.13086624       1.50306845      -2.24080114 
O       1.87845482       2.82227781      -1.52422389 
O       2.16515173       0.63047972      -1.99917122 
H       1.33989483       3.59651042      -1.72070494 
H       1.82920276       0.42886232       0.03342125 
H       1.71579535       2.00704415      -3.41256514 
H       1.51589815      -1.00991354      -0.98708417 
H      -0.69972429      -0.19008265      -1.46841347 
H      -0.40151051       1.11071775      -0.27755618 
