8
 energy: -12.461011492876 gnorm: 0.000823603518 xtb: 6.2.3 (830e466)
C         2.24870767411494    0.98173765861387   -1.78064376350248
C         1.55911108067605    0.37303879990121   -0.82134968794655
C         1.34945813776507   -1.08203390434828   -0.83626352050702
O         1.77577904651395   -1.83642485130245   -1.67210838391325
H         2.41779478039674    2.04480113938451   -1.79222225198204
H         2.66852063220605    0.40382993818209   -2.58906118892473
H         0.74757924876793   -1.45808277324646    0.01442103403350
H         1.12434939955926    0.91601399281550    0.00513776274257
8
Properties=species:S:1:pos:R:3 6.2.3=T gnorm:=T pbc="F F F" 0.000976294312=T energy:=T xtb:=T 830e466=T -12.379614168754=T
C       2.35471083       0.28733564      -2.24739878 
C       1.86733567      -0.60762318      -1.61054916 
C       1.28734348      -1.67478765      -0.85499363 
O       1.41198903      -2.84457978      -1.09316941 
H       1.77148242       3.07764933      -0.31630851 
H       2.77821909       1.07582879      -2.79847891 
H       0.68854186      -1.30712854       0.00308867 
H       1.73167761       2.33618539      -0.55428026 
