12
 energy: -21.527957292228 gnorm: 0.000945910171 xtb: 6.2.3 (830e466)
C         3.08211164239968    0.68428616808567   -0.74802577153531
C         1.83784747238095    0.83304045629677   -1.19148152222476
C         0.84638585263011   -0.22873903404031   -1.06292010599700
O        -1.36577743503245    2.25803825563663   -2.43217471059727
O        -0.14389608145551    2.95211842605514   -2.65766524910064
O        -0.30511935555878   -0.14780643572014   -1.42190210320789
H        -0.45642215080262    3.78038697457242   -3.03978862244666
H         3.81745096266270    1.46543052681350   -0.83796263827709
H         3.40637072118176   -0.22986794903588   -0.27459548844543
H         1.22389670161920   -1.15665718492578   -0.59549038158327
H        -1.05682207766570    1.38399458597585   -2.10653891594886
H         1.50318374763968    1.74587521028654   -1.66706449063333
12
Properties=species:S:1:pos:R:3 6.2.3=T gnorm:=T 0.000708011808=T pbc="F F F" -21.482169691476=T energy:=T xtb:=T 830e466=T
C       2.73733652       1.04563069      -1.36346271 
C       1.54880276       1.04341614      -0.78825297 
C       0.42031830       0.14616045      -1.20695000 
O      -0.65835481       1.60389668      -2.67656306 
O      -0.24376765       2.90593544      -2.41013828 
O      -0.77353474       0.86081091      -1.50186165 
H       0.72808269       2.89875381      -2.45557649 
H       3.52375032       1.70688824      -1.04193023 
H       2.97811500       0.37155356      -2.16984019 
H       0.10883350      -0.49283936      -0.37543533 
H       0.70935491      -0.47792525      -2.06110156 
H       1.31027320       1.72781869       0.01550248 
