12
 energy: -21.525526392377 gnorm: 0.000599719984 xtb: 6.2.3 (830e466)
C         2.48749731141951    1.25009987054934   -1.80779898019641
C         2.17300317935019    0.62982463285041   -0.67313124832931
C         1.00388981980599   -0.24064457173841   -0.55317849002624
O        -0.59948264444634    1.81962249978327   -2.95512001274566
O        -0.42904962782521    2.79264207961366   -1.93213432652202
O         0.11836279420412   -0.35111417070246   -1.36893162998363
H        -0.92296013273864    3.54378484665289   -2.28413392820555
H         1.88437545870973    1.13121401245002   -2.69330148630267
H         3.35376307642384    1.88414992933609   -1.88994114040827
H         0.97187439214706   -0.82902956174066    0.38196462424173
H        -0.43471524868800    0.98000588809936   -2.47363909705635
H         2.78274162163877    0.72936454484687    0.21354571553379
12
Properties=species:S:1:pos:R:3 -21.510478940251=T 0.000636919716=T gnorm:=T pbc="F F F" energy:=T xtb:=T 6.2.3=T 830e466=T
C       2.70939712       1.36600705      -2.27667485 
C       1.74357166       1.85767805      -1.52302210 
C       0.13722324      -0.62664437      -0.99051134 
O       0.59151402       2.33145371      -2.08249043 
O      -0.36844830       2.65093185      -1.08592009 
O       0.95267851      -1.30330438      -0.44056646 
H      -0.85804273       3.38526740      -1.48203118 
H       2.61415605       1.31279157      -3.34557937 
H       3.61794236       1.01313619      -1.83134658 
H      -0.51582232       0.07756716      -0.45130302 
H      -0.02556269      -0.65889364      -2.08062687 
H       1.79069308       1.93392942      -0.44572771 
