12
 energy: -21.566430888459 gnorm: 0.000547058205 xtb: 6.2.3 (830e466)
C         1.86515710027615    0.93688368315521   -2.47494543370903
C         1.12696990103524    1.12344996923491   -1.14689123452904
C         0.80818377926522   -0.20683692008198   -0.49947087255562
O        -0.10073109919158    1.80289588633352   -1.28566234738139
O         0.15803604094077    3.18859649382079   -1.51684816184204
O         1.59215314780397   -1.10025095714168   -0.36890024302679
H        -0.71322737308387    3.51759828409409   -1.77222376953267
H         2.75508332219809    0.33852086443634   -2.30526084487931
H         2.14663811877946    1.90548521942705   -2.87948991235452
H        -0.23794722982458   -0.27896189993272   -0.15056900229189
H         1.21971299435239    0.42693715523590   -3.18647553572117
H         1.76906129744872    1.68558222141860   -0.44906264217649
12
Properties=species:S:1:pos:R:3 0.000289146604=T 6.2.3=T gnorm:=T -21.635370948938=T pbc="F F F" energy:=T xtb:=T 830e466=T
C       1.77969674       1.68605137      -2.04734730 
C       0.78607509       1.09127594      -1.02700480 
C       1.09627933      -0.36255809      -0.74824193 
O      -0.54631282       1.29364884      -1.43596995 
O       1.61671448       3.06891292      -2.17425883 
O       2.18633706      -0.80265337      -0.52569939 
H       0.67150836       3.25537852      -2.25338150 
H       2.80211808       1.50900501      -1.71045312 
H       1.63228372       1.18512481      -3.01869861 
H       0.19672786      -1.01114049      -0.77470325 
H      -0.71988418       0.78041218      -2.23471573 
H       0.88754627       1.64644236      -0.08532560 
