12
 energy: -21.566430183457 gnorm: 0.000324889269 xtb: 6.2.3 (830e466)
C         1.57755686767993    0.92487482232448   -2.66952260822018
C         1.21224893792981    1.09518947843311   -1.19273721225217
C         0.94434997293518   -0.24107470381839   -0.53479345551688
O         0.05471603922392    1.87530040801288   -0.99337700590155
O         0.36611216548593    3.24438210545628   -1.25702930056926
O         1.66288096546284   -1.19312073306553   -0.61997133282197
H        -0.48011754300234    3.67878442407390   -1.08814024643828
H         2.42857769993615    0.25530695386964   -2.74991892995667
H         1.82875425793528    1.89074543042337   -3.09938534761595
H         0.00288216430103   -0.25792382303103    0.04298603925410
H         0.73464793293051    0.50224087441606   -3.21128605765622
H         2.05638053918176    1.56559476290527   -0.66243454230495
12
Properties=species:S:1:pos:R:3 6.2.3=T gnorm:=T pbc="F F F" -21.504739904213=T energy:=T xtb:=T 830e466=T 0.000383279148=T
C       0.91493248       0.99855338      -2.81920674 
C       0.50645850       0.95267421      -1.55108655 
C       0.55350133      -0.28060590      -0.73787259 
O      -0.00054821       1.98653921      -0.82336167 
O      -0.06676741       3.19696451      -1.56575533 
O       0.96064022      -1.33941438      -1.13169983 
H      -0.41394268       3.81550530      -0.90823067 
H       3.45414028       0.96148760      -1.20266159 
H       0.87518898       1.90250793      -3.39857843 
H       0.17080100      -0.13859143       0.28848090 
H       1.29353792       0.10177975      -3.27370041 
H       4.14104760       1.18289983      -0.91193709 
