12
 energy: -21.567420910783 gnorm: 0.000112629954 xtb: 6.2.3 (830e466)
C         1.48862326486673    0.67662373407651   -2.86629414033625
C         1.20402726328653    1.35746800447374   -1.52796479134079
C         1.67831626016796    0.48697950111984   -0.37824349147354
O        -0.18488259416602    1.58440460132304   -1.48036975416033
O        -0.49499198602246    2.37275677481731   -0.33017114414653
O         2.81541452843538    0.15456721569944   -0.20929980142443
H        -1.39058617880751    2.67636401190541   -0.52844884967500
H         2.54297769396772    0.42208692305673   -2.91572567785117
H         1.23171546596822    1.34131500175223   -3.68588653610504
H         0.86543979094035    0.17828333435380    0.30353072369804
H         0.89281268481195   -0.22876399512475   -2.94744031909930
H         1.74033380655116    2.31810489254666   -1.46958621808567
12
Properties=species:S:1:pos:R:3 -21.678614590055=T 6.2.3=T gnorm:=T pbc="F F F" 0.000873399595=T energy:=T xtb:=T 830e466=T
C       1.54113970       0.52578281      -2.67967237 
C       1.07344453       1.56749689      -1.67513474 
C       1.48445526       1.17147083      -0.23748831 
O      -0.32401114       1.80774288      -1.71838575 
O       0.53850878       1.43029284       0.66014439 
O       2.54846788       0.69701855       0.03402244 
H      -0.23331064       1.81329363       0.19133797 
H       2.60550803       0.35651920      -2.54578296 
H       1.35424696       0.86315506      -3.69633858 
H      -0.77107817       0.99089848      -1.97309520 
H       1.02021005      -0.41691353      -2.51403615 
H       1.55161874       2.53343235      -1.88147075 
