12
 energy: -21.566429077009 gnorm: 0.000703924378 xtb: 6.2.3 (830e466)
C         1.66448985168402    0.88845999294743   -2.62055418382539
C         1.18965922154088    1.12027530730365   -1.18366419736652
C         0.93993104031726   -0.18896392913476   -0.46689158168350
O        -0.01315392305577    1.85170514721348   -1.10686397664885
O         0.25525186267110    3.22041275359635   -1.41454897694377
O         1.70506821314580   -1.10760710879744   -0.45032485710559
H        -0.62084022812600    3.62035391554273   -1.33601259160301
H         2.53518242197022    0.24020213979303   -2.60585095411387
H         1.92188032976580    1.83802558390616   -3.08107046718240
H        -0.03406983704091   -0.21857109498684    0.05344881827308
H         0.87348213987321    0.41562195080531   -3.19751070223478
H         1.97232890725438    1.66019534181088   -0.62596632956536
12
Properties=species:S:1:pos:R:3 6.2.3=T gnorm:=T pbc="F F F" energy:=T -21.579039460901=T xtb:=T 830e466=T 0.000338610624=T
C       1.69566845       0.51806516      -2.71726414 
C       0.53161470       0.94077386      -0.48048369 
C       1.68288494       0.27730605      -1.24063257 
O      -0.23350599       1.85991772      -1.21185801 
O       0.52325795       3.04245719      -1.46169625 
O       2.49283132      -0.38856163      -0.64999256 
H      -0.11272738       3.74961752      -1.28996523 
H       2.46440315      -0.08372856      -3.19255311 
H       1.89129053       1.57503179      -2.89282304 
H      -0.18947182       0.16475906      -0.20375264 
H       0.71649439       0.29320963      -3.13437468 
H       0.92646977       1.39126221       0.43958591 
