12
 energy: -21.567424685833 gnorm: 0.000531358711 xtb: 6.2.3 (830e466)
C         1.67588354338997    0.70125337755931   -2.79480582812389
C         1.24114906786462    1.33432125716585   -1.47289117077716
C         1.35739520126204    0.32387991847894   -0.34633271973877
O        -0.08536948708494    1.76964761787295   -1.65574147330605
O        -0.49776577581220    2.51540264829842   -0.50901549679276
O         2.38993596342304   -0.14497275304263    0.03505031378551
H        -1.29662340326351    2.95472042897165   -0.83019559313827
H         2.68267758966102    0.30974933432726   -2.68623245277213
H         1.65359519320758    1.44369463698755   -3.58721926720256
H         0.38372348860950    0.04695369598154    0.09718602089229
H         0.99750613814494   -0.10800964902461   -3.05207493742014
H         1.88700248059797    2.19366948642377   -1.23352739540605
12
Properties=species:S:1:pos:R:3 0.000791332939=T 6.2.3=T gnorm:=T -21.654933374297=T pbc="F F F" energy:=T xtb:=T 830e466=T
C       1.70135120       0.94805295      -2.97061709 
C       1.43783177       2.33677310      -2.52071740 
C       0.41702615       0.19490720       0.47273573 
O       0.53582981       2.66559149      -1.78838751 
O      -0.51259948       1.03807897       0.11562692 
O       1.50933702       0.08463742      -0.01391027 
H      -0.20951584       1.64467534      -0.61674748 
H       2.13383742       0.41728492      -2.11659618 
H       2.38995649       0.91135253      -3.80736748 
H       0.06384597      -0.43666032       1.30562751 
H       0.77023443       0.43875703      -3.21290434 
H       2.15197504       3.09685938      -2.88254240 
