12
 energy: -21.566265931216 gnorm: 0.000959791454 xtb: 6.2.3 (830e466)
C         1.59534328774882    1.02692696225853   -2.58732469400849
C         1.14134549785872    1.28925692557155   -1.15167535803505
C         0.71052930961780    0.01912302959333   -0.44607955067918
O         0.05216217286020    2.18185963569110   -1.06084594441033
O         0.50619979772139    3.51285400233619   -1.29372704393406
O         1.22969705610046   -1.04731316741435   -0.59399058087617
H        -0.24533544427066    3.92066936364275   -1.74445085476535
H         2.35501717492518    0.25121771576468   -2.58162576513031
H         2.00541913387516    1.93439387358763   -3.02253800636134
H        -0.13760572158782    0.17852897718781    0.24248792576203
H         0.75061478319440    0.69278694528091   -3.18519137459793
H         1.98340295195634    1.69840573649987   -0.56774875296382
12
Properties=species:S:1:pos:R:3 6.2.3=T gnorm:=T 0.000521760153=T -21.508624991667=T pbc="F F F" energy:=T xtb:=T 830e466=T
C       1.10454000       0.96917636      -2.35069523 
C       0.35942307       1.51678415      -1.13934046 
C       2.42762585      -1.61468525      -0.97067752 
O      -0.22190030       2.77635638      -1.36497695 
O       0.81007273       3.76168928      -1.48676487 
O       2.78589973      -1.28981250       0.04961821 
H       0.29848187       4.56656452      -1.63431519 
H       1.48679662      -0.02756293      -2.12904965 
H       1.93767067       1.62304477      -2.59543768 
H      -0.50677799       0.89623912      -0.89412849 
H       0.43838307       0.91117715      -3.20756962 
H       1.02657469       1.56973896      -0.26937254 
