12
-29.911067267159524
C        1.055094       1.210052      -1.441594
C        0.321506       0.165041      -0.643375
C        1.031032      -1.166281      -0.738240
O        0.523296       1.981011      -2.189157
O        2.065167       4.288363      -3.112444
O        2.202327      -1.322575      -0.561027
H        1.511129       4.878958      -3.626592
H        2.145759       1.201155      -1.284003
H        1.516541       3.526174      -2.888596
H        0.365613      -2.009020      -0.999159
H       -0.721023       0.100194      -0.953218
H        0.372559       0.486417       0.401614
12
-29.91114099324659
C        1.055071       1.210059      -1.441576
C        0.321499       0.165052      -0.643364
C        1.031043      -1.166259      -0.738264
O        0.523273       1.981005      -2.189187
O        2.065165       4.288346      -3.112426
O        2.202339      -1.322537      -0.561105
H        1.511185       4.878869      -3.626598
H        2.145735       1.201192      -1.283949
H        1.516540       3.526163      -2.888596
H        0.365622      -2.009006      -0.999162
H       -0.721029       0.100189      -0.953196
H        0.372559       0.486417       0.401632
