12
 energy: -21.564881526544 gnorm: 0.000352375669 xtb: 6.2.3 (830e466)
C         2.02116767134727    1.62980514731800   -1.85813582468970
C         1.55760499412498    1.15544297878878   -0.50408823415724
C         0.65928392858510    0.19327845583154   -0.30867899463576
O         1.10385366336689    2.45164437618082   -2.55835056659982
O         0.05674313530319    1.64836143921238   -3.11072696877778
O        -0.01770905373209   -0.48943999394799   -1.24735587709098
H        -0.69485958124486    2.25463389511776   -3.12127715406267
H         2.88553169083473    2.28764768184697   -1.75004746873066
H         2.30089202306819    0.78323418480478   -2.50168663346416
H         0.39499767254112   -0.13373751403839    0.68786992717724
H         0.12992045127802   -0.08006623429389   -2.11701119756591
H         1.99198340452746    1.63908558317923    0.35377899259744
12
Properties=species:S:1:pos:R:3 6.2.3=T gnorm:=T pbc="F F F" -21.480796855390=T energy:=T 0.000595779967=T xtb:=T 830e466=T
C       2.02977018       1.74593848      -1.86841292 
C       1.59331296       1.18578756      -0.54124741 
C       0.34381299       1.13861407      -0.11886691 
O       0.99780354       1.92825360      -2.82247444 
O       0.70768907       0.74769094      -3.51365375 
O      -0.43050113       0.12623881      -3.01155768 
H      -0.46937232       1.50725245      -0.72281272 
H       2.42162489       2.75964810      -1.72919013 
H       2.82747495       1.12817577      -2.29999697 
H       0.08519099       0.73514612       0.84463436 
H      -0.12702004      -0.49131243      -2.32375902 
H       2.40962392       0.82845654       0.07162757 
