12
 energy: -21.564380673561 gnorm: 0.000897306535 xtb: 6.2.3 (830e466)
C         2.12808685029863    1.40296728591997   -1.86449738040031
C         1.53730139650149    0.62520610842197   -0.71705515582125
C         0.35394097884388    0.02160282288047   -0.74379569146258
O         1.16415289010951    1.97048259513189   -2.73937382015875
O         0.53922838973774    3.09279491269599   -2.14649716287173
O        -0.52010893234803    0.00801589521821   -1.77401086503591
H        -0.29384289788687    2.75747089714973   -1.78053867951108
H         2.70406800856369    0.75194592281366   -2.53297562109467
H         2.79142243649801    2.18869301967264   -1.48760882467573
H        -0.03059509344003   -0.51729291198612    0.11058649531004
H        -0.12498954253901    0.47182149454669   -2.53167210640743
H         2.14053551566105    0.56609195753487    0.17153881212944
12
Properties=species:S:1:pos:R:3 0.000664202817=T 6.2.3=T gnorm:=T pbc="F F F" energy:=T -21.494692351421=T xtb:=T 830e466=T
C       1.47263922       1.19143651      -2.76517310 
C       1.12163313       0.60049461       0.79359838 
C       1.05527063      -0.59006549       0.86373845 
O       1.56406739       2.56158852      -2.49883301 
O       0.74797736       2.92591282      -1.40560950 
O       0.29438715       0.84818999      -3.42332101 
H      -0.16055604       2.90865257      -1.74798763 
H       1.49470867       0.60257010      -1.84016349 
H       2.36607040       0.99080558      -3.37256865 
H       0.99619449      -1.63556908       0.94087320 
H       0.26058020       1.28977524      -4.28144552 
H       1.17622739       1.64600861       0.70099187 
