12
 energy: -21.564668068096 gnorm: 0.000583173602 xtb: 6.2.3 (830e466)
C         1.94016248375999    1.60405337215044   -1.83488882030960
C         1.67603543725954    0.57974124740127   -0.76474627817407
C         0.67829236022045   -0.29845720743766   -0.76149153465945
O         0.81672862301395    1.97086355899128   -2.61817082289583
O        -0.10332620938258    2.74600135476676   -1.86143146683959
O        -0.29076235104986   -0.43422077392695   -1.68193963443879
H        -0.08833146957124    3.61376793586345   -2.28839715921405
H         2.39122986021742    2.49988725725293   -1.38919035478925
H         2.62756942463410    1.21141960454097   -2.59525787548068
H         0.56931623088037   -1.01346167429056    0.04279446606275
H        -0.21043375473594    0.28336351914276   -2.33036234020717
H         2.38261936475368    0.57704180554529    0.04747182094570
12
Properties=species:S:1:pos:R:3 -21.566989772807=T 6.2.3=T gnorm:=T pbc="F F F" 0.000800342198=T energy:=T xtb:=T 830e466=T
C       1.71184076       2.50411944      -2.67485709 
C       0.69856489       0.76691443      -0.11176164 
C       0.63028311      -0.47241742      -0.58286734 
O       0.55329794       1.87320517      -2.18662528 
O       0.50418632       1.96718653      -0.76338538 
O       0.39465412      -0.86707934      -1.85674429 
H       1.74898323       3.55052034      -2.36397493 
H       2.61908242       1.98646826      -2.34742091 
H       1.61513044       2.44052446      -3.75746649 
H       0.80305970      -1.30661346       0.07925497 
H       0.21431933      -0.08081194      -2.39581972 
H       0.89569772       0.97798353       0.92605809 
