10
 energy: -20.526306677962 gnorm: 0.000512216061 xtb: 6.2.3 (830e466)
C         0.93184959357055    1.85762201068464   -1.31311609435647
C         0.67963291097000    1.11713198488227   -0.22393274098081
C         1.03554951266181   -0.29094686793213   -0.21032279512717
O         0.62557539913872    3.15368199276213   -1.37358880009523
O         0.98315062252680    3.72300459928905   -2.62463163325342
O         1.56038371425157   -0.89252341770745   -1.11637091886468
H         0.76247206535828    4.65881655053946   -2.50995361560294
H         1.39730624744640    1.42184175020738   -2.19002098719894
H         0.77890209449255   -0.80294573836439    0.73637491530923
H         0.21537783958335    1.54610713563913    0.64866267017046
10
Properties=species:S:1:pos:R:3 6.2.3=T gnorm:=T pbc="F F F" 0.000590174059=T energy:=T xtb:=T 830e466=T -20.444640244173=T
C       0.37241698       2.77355027       0.02550710 
C      -0.31874860       2.36129448       0.91652275 
C       1.51403854      -0.01387412      -1.77331281 
O       1.12846560       3.19642642      -0.92907969 
O       0.92367457       2.46167592      -2.16187273 
O       2.61938330       0.03599983      -2.22589913 
H       1.71238701       2.69969837      -2.67083862 
H       0.62132385      -0.18665716      -2.39499737 
H       1.30494491       0.08939623      -0.69562019 
H      -0.90768617       2.07427975       1.73269067 
