12
 energy: -21.561957184830 gnorm: 0.000392069165 xtb: 6.2.3 (830e466)
C         1.85934182167451    1.30435217767942   -2.37131841093552
C        -0.29715342185977    0.01650207104245   -1.02626085321465
C         0.94636823433182    0.04848863664955   -0.58186720599785
O         1.01850923100918    2.41606227767606   -2.36689077236361
O         1.65995511614353    3.54018701349171   -1.79772220379706
O         2.02095099887770    0.69471332625886   -1.12567936173204
H         1.32480755953670    3.58447364387869   -0.88911751457862
H         2.86904808807057    1.57818643148110   -2.69878692548787
H         1.38695008041767    0.62448780294537   -3.09425952395247
H         1.26150264850821   -0.46247670536218    0.31729764032745
H        -0.62076931524918    0.54229817877659   -1.90661506831602
H        -1.04010104146103   -0.54747485451768   -0.49476979995167
12
Properties=species:S:1:pos:R:3 0.000894642389=T 6.2.3=T gnorm:=T pbc="F F F" energy:=T xtb:=T 830e466=T -21.677635845820=T
C       1.79420455       1.00354976      -2.73653100 
C      -0.01385347       0.79543597      -1.46725663 
C       1.19412543       1.02301943      -0.52769308 
O       0.44129857       1.32893914      -2.69178340 
O       1.10381271       2.19093708       0.20917327 
O       2.28998196       1.05512022      -1.41639796 
H       1.12084922       2.94594988      -0.39525409 
H       2.32082439       1.72857910      -3.36431019 
H       1.94577256      -0.01785244      -3.13483171 
H       1.32781812       0.21929080       0.20357380 
H      -0.23508153      -0.27516128      -1.56364392 
H      -0.90034251       1.34199232      -1.15103508 
