12
 energy: -21.579059590097 gnorm: 0.000995529265 xtb: 6.2.3 (830e466)
C         1.57036700989438    1.43489277358151   -2.46972483310953
C         0.07438722478161    0.19001516532295   -0.81172907242507
C         1.42084863389441    0.29883495367424   -1.45427473021553
O         0.51715450308374    2.36060091763827   -2.50936250049189
O         0.51156196115642    3.15924824517710   -1.33130071890588
O         2.34683518183873   -0.43574956290568   -1.22979521209750
H         0.48791321475714    4.06442504995368   -1.67146502488006
H         2.53608449217550    1.93166036547576   -2.30746572813106
H         1.57009480942967    0.99946829338168   -3.47427595694988
H         0.01853706424322   -0.70411866775543   -0.19801021218517
H        -0.69762552806903    0.18086302816608   -1.57820534690697
H        -0.08816856718579    1.07364943828983   -0.19618066370145
12
Properties=species:S:1:pos:R:3 6.2.3=T gnorm:=T pbc="F F F" 0.000304132311=T energy:=T -21.508686108640=T xtb:=T 830e466=T
C       1.11273447       1.57380413      -2.03356487 
C       0.18867741       0.79841069      -1.10211163 
C       2.19724462      -1.67179718      -0.91070569 
O       0.51166174       2.71363719      -2.59394319 
O       0.31204518       3.69634730      -1.57254922 
O       2.73258355      -1.65456427      -1.90466336 
H      -0.08860957       4.41954525      -2.07044438 
H       2.03173470       1.86168107      -1.50718101 
H       1.37122391       0.98492208      -2.91812735 
H       0.69886143      -0.09211680      -0.73392509 
H      -0.71479578       0.50139272      -1.62896807 
H      -0.08537167       1.42252781      -0.25560614 
