12
 energy: -21.579043599624 gnorm: 0.000495727761 xtb: 6.2.3 (830e466)
C         1.95400009310783    1.26472719127686   -2.17525056376865
C         0.15805849744017    0.16427118098007   -0.72561689979765
C         1.61782197607547    0.33983381872176   -1.00255244500404
O         0.87784237905731    1.98672761392898   -2.71085732048326
O         0.45762301940772    2.99757760278242   -1.79801554082341
O         2.50008072118129   -0.19135388353720   -0.37969601444559
H         0.35362984882754    3.77534634745189   -2.36229840638408
H         2.77477447051076    1.93107561191339   -1.87810782840904
H         2.29550662788107    0.64764137165485   -3.01297188416514
H         0.00470918357329   -0.60821781246501    0.02158957215467
H        -0.36497726675434   -0.07945088869616   -1.64735956737218
H        -0.23995955030810    1.11173184598806   -0.36475310150165
12
Properties=species:S:1:pos:R:3 6.2.3=T gnorm:=T 0.000372923123=T -21.602388007890=T pbc="F F F" energy:=T xtb:=T 830e466=T
C       1.74247774       2.60764302      -2.93393006 
C      -0.11181801       0.03716464      -0.44406907 
C       1.38402307       0.03351584      -0.53351206 
O       1.02502454       1.80671484      -2.02942552 
O       1.94426748       0.94663572      -1.35736391 
O       2.12944800      -0.69734509       0.05148993 
H       0.98181407       3.25396280      -3.36789710 
H       2.49771404       3.20730862      -2.42038026 
H       2.21481424       2.00409690      -3.71338555 
H      -0.43191602      -0.74573147       0.23576380 
H      -0.53581779      -0.12258140      -1.43334165 
H      -0.45092136       1.00852557      -0.08983855 
