14
 energy: -33.446190481017 gnorm: 0.000288471012 xtb: 6.2.3 (830e466)
C        -0.35546333857394    0.15684047735876    1.19347129785264
C        -1.71445519584478   -2.67179329083247    3.16047455113201
C        -2.15808908603814   -2.53306879908340    4.60241584914399
C        -0.76022899162523   -1.31834038335450    1.49911735048238
O        -1.28216813193658   -1.37710702289928    2.69877973178099
F         0.19264544495552    0.27588282995345   -0.01219141237633
F         0.52957499139010    0.61054357848422    2.08920714682970
F        -1.41857773676559    0.96875648056902    1.23909622360584
O        -0.59532624440908   -2.21366125241791    0.72558496655094
H        -2.53194034407605   -3.01015427790897    2.51600054722992
H        -0.87940913455799   -3.37187039685177    3.05673612801431
H        -2.48540044571222   -3.49943579083421    4.97407533319759
H        -1.33562818521385   -2.17587273789762    5.21552996009776
H        -2.97959360159217   -1.82630941428531    4.67591232645826
14
Properties=species:S:1:pos:R:3 6.2.3=T gnorm:=T pbc="F F F" 0.000732983885=T energy:=T xtb:=T 830e466=T -33.449667146672=T
C      -0.50547656      -0.34948336       1.71736083 
C      -2.33945580      -2.64030914       2.75799685 
C      -1.86686821      -1.91142535       4.03166620 
C      -0.29906116      -1.72736587       2.41426065 
O      -1.18876330      -2.66912264       1.92087044 
F      -0.25074309      -0.42619078       0.40641404 
F       0.31392736       0.57714765       2.22540756 
F      -1.75408531       0.11804501       1.84687961 
O      -0.49595098      -1.62103872       3.78266046 
H      -3.15394234      -2.10409184       2.26232695 
H      -2.63389837      -3.67467135       2.93900056 
H       0.73336142      -2.03643813       2.20438388 
H      -2.42543910      -0.98560673       4.19978580 
H      -1.90766456      -2.53503875       4.92519616 
