14
 energy: -33.446190481017 gnorm: 0.000288471012 xtb: 6.2.3 (830e466)
C        -0.35546333857394    0.15684047735876    1.19347129785264
C        -1.71445519584478   -2.67179329083247    3.16047455113201
C        -2.15808908603814   -2.53306879908340    4.60241584914399
C        -0.76022899162523   -1.31834038335450    1.49911735048238
O        -1.28216813193658   -1.37710702289928    2.69877973178099
F         0.19264544495552    0.27588282995345   -0.01219141237633
F         0.52957499139010    0.61054357848422    2.08920714682970
F        -1.41857773676559    0.96875648056902    1.23909622360584
O        -0.59532624440908   -2.21366125241791    0.72558496655094
H        -2.53194034407605   -3.01015427790897    2.51600054722992
H        -0.87940913455799   -3.37187039685177    3.05673612801431
H        -2.48540044571222   -3.49943579083421    4.97407533319759
H        -1.33562818521385   -2.17587273789762    5.21552996009776
H        -2.97959360159217   -1.82630941428531    4.67591232645826
14
Properties=species:S:1:pos:R:3 6.2.3=T gnorm:=T 0.000479532051=T -33.460821804353=T pbc="F F F" energy:=T xtb:=T 830e466=T
C      -0.72136029      -0.17471294       1.19380815 
C      -1.38836949      -1.54046800       1.35843271 
C      -1.86326402      -2.45771461       4.87510483 
C      -1.23506914      -2.49152171       3.51684466 
O      -1.89826896      -1.66361983       2.66694687 
F      -0.12266466      -0.07559527      -0.00075678 
F       0.20902713       0.04853507       2.12419148 
F      -1.59936807       0.83169058       1.27094649 
O      -0.29350186      -3.14892759       3.17997007 
H      -2.21564455      -1.61423721       0.64802177 
H      -0.63716965      -2.31979108       1.17260528 
H      -2.19545641      -3.45908117       5.13976278 
H      -1.11302148      -2.15280318       5.60125632 
H      -2.69992856      -1.76734307       4.88707539 
