18
 energy: -37.881472801158 gnorm: 0.000620816722 xtb: 6.2.3 (830e466)
C        -0.83769566766891    0.36574640163213    1.08759820017049
C        -1.59732153188715   -2.61058648030374    3.17482927420807
C        -2.08239721228319   -2.09877105012607    4.52106300018913
C        -0.61550774038235   -0.68236249379333    2.22375492461638
N         1.46368385279041   -3.41790092049573    3.49020058253813
O        -1.58746263740115   -1.55051848842513    2.19073399914919
F         0.20118198569112    1.19162631437779    0.97443218974220
F        -1.92324026376188    1.11221312909671    1.32947522250891
F        -1.01620983187867   -0.22281487080428   -0.10002618451413
O         0.32336250979677   -0.62350709761626    2.96388181991155
H        -0.58614772719374   -3.03258885155082    3.25777628488482
H        -2.28715212020882   -3.34509801035125    2.75791757332862
H         2.05353703584627   -3.81970595345761    2.77089849116784
H         1.61491505246000   -2.41397425440275    3.48192017171794
H         1.79674525198807   -3.76475629382215    4.38244563974321
H        -2.14813040908254   -2.93229136551072    5.21368202895105
H        -3.06311243948245   -1.63830032207694    4.42611587239454
H        -1.38461810733980   -1.36760939236643    4.92091090929439
18
Properties=species:S:1:pos:R:3 -37.885466606139=T 6.2.3=T gnorm:=T pbc="F F F" 0.000815047002=T energy:=T xtb:=T 830e466=T
C      -0.76535505       0.35190046       1.31050138 
C      -0.31239710      -3.26509965       2.21494528 
C      -1.84528913      -1.91160190       5.39658988 
C      -0.01453964      -1.00493967       1.49548512 
N       0.65358391      -3.33589398       3.22152864 
O      -0.85370744      -1.89844247       1.94598762 
F       0.04554797       1.30730073       0.86563202 
F      -1.28544548       0.76804969       2.47277224 
F      -1.77509844       0.23444312       0.44168172 
O       1.14987139      -1.13469707       1.25822298 
H       0.09619251      -3.62442775       1.26680663 
H      -1.21449976      -3.81436872       2.48836965 
H      -0.94858055      -1.56021517       5.89232357 
H       1.52180700      -2.87871315       2.97145444 
H       0.32070034      -3.00819679       4.11860131 
H      -1.84604372      -2.99427044       5.36053726 
H      -2.70982788      -1.57498517       5.95285321 
H      -1.89248893      -1.50704206       4.39331706 
