14
 energy: -33.446190481017 gnorm: 0.000288471012 xtb: 6.2.3 (830e466)
C        -0.35546333857394    0.15684047735876    1.19347129785264
C        -1.71445519584478   -2.67179329083247    3.16047455113201
C        -2.15808908603814   -2.53306879908340    4.60241584914399
C        -0.76022899162523   -1.31834038335450    1.49911735048238
O        -1.28216813193658   -1.37710702289928    2.69877973178099
F         0.19264544495552    0.27588282995345   -0.01219141237633
F         0.52957499139010    0.61054357848422    2.08920714682970
F        -1.41857773676559    0.96875648056902    1.23909622360584
O        -0.59532624440908   -2.21366125241791    0.72558496655094
H        -2.53194034407605   -3.01015427790897    2.51600054722992
H        -0.87940913455799   -3.37187039685177    3.05673612801431
H        -2.48540044571222   -3.49943579083421    4.97407533319759
H        -1.33562818521385   -2.17587273789762    5.21552996009776
H        -2.97959360159217   -1.82630941428531    4.67591232645826
14
Properties=species:S:1:pos:R:3 -33.415848135296=T 6.2.3=T gnorm:=T pbc="F F F" energy:=T 0.000574645151=T xtb:=T 830e466=T
C      -0.43749370      -0.34330225       1.59517847 
C      -1.32245130      -2.75580925       1.79929584 
C      -1.95239679      -1.86030461       4.58432516 
C      -1.21666030      -1.40481808       2.37087135 
O      -2.39665261      -1.83237486       1.79677979 
F      -0.53924122      -0.51710344       0.27415129 
F       0.86814596      -0.39730106       1.89176331 
F      -0.85353272       0.89145047       1.86766365 
O      -1.13824037      -1.09869732       3.70196906 
H      -1.44500227      -3.60274530       2.46060485 
H      -0.88697184      -2.96234339       0.83018953 
H      -1.51333437      -2.84430974       4.76903321 
H      -1.97822739      -1.29139547       5.50991279 
H      -2.96200109      -1.96653570       4.18247168 
