11
 energy: -12.883568980675 gnorm: 0.000404253121 xtb: 6.2.3 (830e466)
C         1.18034766780365   -0.03819018057332    1.93929105657375
C        -2.44964387806682   -0.02414785389304    1.11001176408034
C        -1.14931495701573   -0.06209572824613    1.84065578814405
N        -0.05697101275977   -0.00091450164097    1.22864373443881
H        -1.20444446341378   -0.14624843650763    2.93939026190556
H         1.06019422889574   -0.12259168987198    3.02950989116517
H         1.73662094717044    0.87048225346698    1.70475803554859
H         1.76030371273121   -0.88579763049371    1.57140084853579
H        -3.28705258809801   -0.08767649342108    1.79856504090123
H        -2.52423011459980    0.89762956841561    0.53616886454156
H        -2.50069954264712   -0.85044930723473    0.40350471416514
11
Properties=species:S:1:pos:R:3 6.2.3=T gnorm:=T pbc="F F F" 0.000705526396=T energy:=T xtb:=T -12.865165604944=T 830e466=T
C       1.23035538      -0.10191393       2.80658013 
C      -2.65438623      -0.01619553       0.96993483 
C      -1.51001704       0.05922476       0.10563949 
N      -0.59690066       0.12278633      -0.57881920 
H       0.37618248      -0.16434937       3.46922404 
H       0.89457557      -0.02945836       1.77991693 
H       1.81500251       0.77351819       3.05706891 
H       1.84084037      -0.98759190       2.92433470 
H      -2.32154895      -0.09066407       2.00450192 
H      -3.26275637       0.87915237       0.84832886 
H      -3.24623705      -0.89450850       0.71518939 
