10
 energy: -11.549257541736 gnorm: 0.000180603922 xtb: 6.2.3 (830e466)
C        -1.78237993695924   -0.69623143120700   -0.42965937747287
C        -1.83555058180267    0.74495841666279   -0.24011632999716
C        -1.00311071358690   -1.54758507802736    0.22837378870787
C        -1.10593438176642    1.45296138585555    0.61513769354991
H        -2.45516321855630   -1.08121827672021   -1.18610881654684
H        -2.54776845334398    1.26142367741965   -0.87184497200778
H        -0.31530773046131   -1.22774596935301    0.99214965828742
H        -1.02637357967803   -2.60440245821354    0.02466751418053
H        -1.20918886015093    2.52172838952532    0.69253391658281
H        -0.38122254369421    0.99883134405781    1.26881692471610
10
Properties=species:S:1:pos:R:3 6.2.3=T gnorm:=T 0.000425227668=T pbc="F F F" energy:=T -11.543185044953=T 830e466=T xtb:=T
C      -2.00441293      -0.30867242      -0.15222777 
C      -1.60436469       0.75596670       0.47026371 
C      -1.10467129      -1.42871094      -0.58218010 
C      -1.19772802       1.81437761       1.09495576 
H      -3.05396887      -0.42688492      -0.39339956 
H      -1.15363826      -1.55294906      -1.66404733 
H      -0.07500549      -1.22881601      -0.29641891 
H      -1.42442195      -2.36379288      -0.12210310 
H      -0.88329149       2.70106016       0.56693855 
H      -1.16049703       1.86114174       2.17216873 
