16
 energy: -17.892595357606 gnorm: 0.000356520033 xtb: 6.2.3 (830e466)
C        -0.23966509575933    0.70476531212825    0.24041089937031
C         0.14636679075148   -0.73245296272673   -0.23227674454295
C        -0.81203487303176    0.82788164250308    1.64232046722278
C        -0.48151150683704   -1.21230523170573   -1.52981233944876
C         1.22695671912010    1.02320110619977    0.08383935943904
C         1.55388080500088   -0.19675336922047   -0.32563119921713
H        -0.88119683142144    1.22652134894594   -0.47391382512255
H         0.01351492703547   -1.48432230917486    0.54937670753363
H         1.77631289346267    1.92955439304298    0.26539407244105
H         2.46976671973637   -0.66768928694220   -0.63472975091324
H        -0.17133405356991    0.31818952007988    2.35898606901939
H        -1.80588294646224    0.38701186905805    1.68766322126278
H        -0.88516792700122    1.87491936258065    1.93040690370893
H        -0.01501766806258   -2.14037331501710   -1.85497123622003
H        -0.34854108654161   -0.46829399900710   -2.31257522559060
H        -1.54665686641985   -1.38994408074440   -1.39478737894261
16
Properties=species:S:1:pos:R:3 0.000443608516=T 6.2.3=T gnorm:=T pbc="F F F" energy:=T -17.822256031764=T xtb:=T 830e466=T
C      -1.06677566       0.14038808       0.22042752 
C      -0.78720427      -1.08944095      -0.17973707 
C      -1.06597158       0.59554225       1.64233823 
C      -0.77797292      -1.54022350      -1.60336652 
C       3.24433790       1.77878973      -0.01577945 
C       2.29766570       1.05622876      -0.10359389 
H      -1.31221301       0.90226385      -0.51020541 
H      -0.54013612      -1.85083512       0.55066621 
H       4.08420698       2.40426486       0.06101879 
H       1.45252629       0.43530269      -0.17612921 
H      -0.81884768      -0.22279912       2.31476230 
H      -2.04609028       0.98844583       1.91193291 
H      -0.33988265       1.39710378       1.78263152 
H       0.19881688      -1.94630354      -1.86795731 
H      -1.01001152      -0.71715448      -2.27553016 
H      -1.51265805      -2.33166313      -1.75177845 
