21
 energy: -31.061511179277 gnorm: 0.000373458974 xtb: 6.2.3 (830e466)
C         1.36798350654087   -1.63472113302699    0.18753907465196
C        -3.10123340687027   -2.69703379667180    0.73893101488515
C        -2.50737006359304    0.17337362946091   -0.42696406550200
C         0.38096553481603   -1.71049755659977    1.30761345166880
C        -2.10373415469910   -1.14679452258156   -0.99625879893590
C        -2.35543227573852   -2.35261008482418   -0.50852752694554
O        -0.04475014612314   -0.48528965233944    1.63260655994177
O        -0.99999113950742   -0.48981025163962    2.66016452046453
O        -0.01157654802231   -2.69624580418123    1.87781627715698
H        -1.10634989865286   -1.45206945030390    2.85001706785929
H        -1.99239581813807   -3.21693871440272   -1.05259136878257
H        -1.54606852116955   -1.07237098391351   -1.92341867584340
H         1.64732796722913   -0.60194986623758    0.00598889149387
H         0.90702991514469   -2.05332363159215   -0.70465520117893
H         2.24145388222938   -2.23254596191246    0.43479563786092
H        -3.41561326389409   -1.81521325450506    1.28906580613742
H        -2.47025793042826   -3.31205551468813    1.38115849055564
H        -3.98524709577435   -3.28405608723724    0.48973241632645
H        -1.62449939251420    0.78949855702180   -0.25754256430866
H        -3.04016568837006    0.07389670270457    0.51307065552644
H        -3.14668546246714    0.69995737747000   -1.13576166303292
21
Properties=species:S:1:pos:R:3 6.2.3=T gnorm:=T pbc="F F F" 0.000615031893=T energy:=T -31.180532658844=T xtb:=T 830e466=T
C       2.00734838      -1.50813563      -0.16649581 
C      -3.49845395      -2.62033745       0.98317911 
C      -2.33003765       0.19545475      -0.04462530 
C       0.56506997      -1.88830904      -0.37285043 
C      -1.65892734      -1.17039666       0.00313897 
C      -2.09944919      -2.04587363       1.20312596 
O      -0.24833245      -0.93177521       0.07807859 
O      -2.00176982      -1.36429004       2.42818987 
O       0.18523563      -2.91490144      -0.87400303 
H      -2.67040397      -0.66971324       2.44752439 
H      -1.38337777      -2.87093977       1.28387418 
H      -1.85913699      -1.73784131      -0.91495436 
H       2.10061431      -0.43341554      -0.05237528 
H       2.60262532      -1.86425092      -1.00192141 
H       2.36237043      -1.99390586       0.74014109 
H      -4.23692206      -1.82572673       0.89711217 
H      -3.76455500      -3.24755482       1.83010796 
H      -3.52112572      -3.22274688       0.08063374 
H      -2.03474105       0.78196850       0.82202807 
H      -3.41065496       0.08907542      -0.06972314 
H      -2.01198613       0.72681551      -0.93740532 
