9
 energy: -18.438051438541 gnorm: 0.000167786893 xtb: 6.2.3 (830e466)
C         2.15057934918855   -1.90750146170589    1.06445728263766
C         0.67458820619809   -2.13630341809726    0.98125649176136
O        -0.07888898998344   -1.08407362535384    0.57218303238413
O         0.64536599495688    0.09767114785605    0.28166241812394
O         0.08730098033800   -3.14585278577337    1.23573991895332
H        -0.06262640370455    0.71064350357630    0.03493410578176
H         2.63663448443897   -2.81681155785546    1.40183407677553
H         2.52790376451608   -1.61566356928590    0.08620784875870
H         2.35269261405143   -1.09044823336064    1.75444482482361
9
Properties=species:S:1:pos:R:3 6.2.3=T gnorm:=T 0.000680841724=T pbc="F F F" energy:=T xtb:=T 830e466=T -18.539295865647=T
C       2.49994309      -1.29024127       0.84122229 
C      -0.85900550      -2.25966218       0.96140864 
O      -1.57551859      -1.41309501       0.68248883 
O       1.23519256      -0.70269299       0.63528127 
O      -0.19013154      -3.14323659       1.24790129 
H       1.35452283       0.20707489       0.34172979 
H       3.06724310      -0.76159373       1.61381341 
H       3.08667256      -1.31425132      -0.08254250 
H       2.31463149      -2.31064180       1.17141700 
