21
 energy: -31.058481256778 gnorm: 0.000929943460 xtb: 6.2.3 (830e466)
C         1.95700901910392   -1.06821313013253    0.97419712274927
C        -4.51806518124005   -2.88404992671807    1.16021345502489
C        -2.34450529482658   -0.64658408232865    0.73614409066735
C         1.20814508070407   -0.86116118278260   -0.30317368911096
C        -2.29097546616205   -2.06814885960152    0.27669059900497
C        -3.20694352084870   -3.00770454475069    0.45468018487038
O         0.79931442730966    0.40952936410674   -0.39875921161064
O         0.06597870237594    0.66618887046897   -1.56758456974565
O         0.97007619095587   -1.67551811730404   -1.15815665056600
H         0.05479233402588   -0.21261378242134   -2.01564192179156
H        -3.01512002311314   -3.99566732875991    0.05422942056205
H        -1.38651174142563   -2.33280575319678   -0.25757502017975
H         1.41446657530900   -1.78722335621459    1.58488956506356
H         2.05825862790046   -0.12672236248802    1.50461071948687
H         2.93525991088172   -1.48658366214657    0.75011828789761
H        -4.67295783138293   -1.89307271510790    1.57457118116081
H        -4.57008064696340   -3.61080000511241    1.97079559195959
H        -5.33207547550588   -3.10426363038426    0.46956814985496
H        -3.30991962530048   -0.38763528164694    1.15902709110371
H        -2.14451171030401    0.02442617861057   -0.09833461424659
H        -1.57844435149270   -0.46845669209537    1.49240021785543
21
Properties=species:S:1:pos:R:3 6.2.3=T gnorm:=T 0.000546908503=T pbc="F F F" energy:=T xtb:=T 830e466=T -31.054039045122=T
C       0.20550328      -1.52354650       1.84505245 
C      -3.30693373      -2.39866564       0.42791947 
C      -2.00056492      -0.27288824       2.04543331 
C       0.23969291      -1.60946722      -2.46445481 
C      -1.25643796      -1.46720507       1.52065600 
C      -1.85362562      -2.40870930       0.79282231 
O      -0.47281540      -0.50360125      -2.49543413 
O      -1.25052497      -0.26963653      -1.34957361 
O       0.27982596      -2.40658667      -1.57532224 
H      -1.10931457      -1.05672306      -0.75820888 
H      -1.27862818      -3.25670249       0.44760986 
H       0.79092484      -1.66166120      -3.41591461 
H       0.34855618      -1.65595670       2.91751798 
H       0.68946189      -0.58910855       1.56147034 
H       0.69183366      -2.34447053       1.32441085 
H      -3.61708616      -1.41326244       0.08335691 
H      -3.92093278      -2.65588391       1.29226982 
H      -3.51022250      -3.12339678      -0.35606732 
H      -2.94894506      -0.57057451       2.48828167 
H      -2.21432032       0.42391417       1.23423895 
H      -1.41225655       0.24705242       2.79684569 
