13
 energy: -16.669036738276 gnorm: 0.000552439830 xtb: 6.2.3 (830e466)
C         1.84338364383541    0.14325478612697    3.58698318521326
C         1.39767678228170    1.36633751886817   -0.09296188875623
C         1.72863598964088    0.98672443523483    2.34936059271352
C         1.50194886443743    0.52224930376300    1.13227139032516
O         1.85872927507198   -1.24374332203854    3.35833113674871
H         2.57507089318738   -1.44250203916309    2.74563329376676
H         2.74420558572431    0.45059916994492    4.14468335229429
H         0.97866118837429    0.32423898784500    4.23472839483256
H         1.84747618280592    2.04782893362406    2.52400192241849
H         1.36767475363897   -0.54078276570274    0.97694438252414
H         0.42302775208743    1.22913828828959   -0.56025431142705
H         2.15501264297557    1.07227798539865   -0.81977646298581
H         1.52898644593872    2.41902871780918    0.14506501233219
13
Properties=species:S:1:pos:R:3 6.2.3=T gnorm:=T pbc="F F F" energy:=T -16.635226582134=T xtb:=T 830e466=T 0.000651563115=T
C       2.15919163       0.58075943       3.30551867 
C       2.43055984       0.90467313       1.02062592 
C       1.13876707       1.55957614       2.81309625 
C       1.29302576       1.74347075       1.51449874 
O       2.89136780       0.18435350       2.15489365 
H       0.78618951      -2.32190949       0.20165970 
H       2.83950473       1.03545444       4.04116831 
H       1.69927952      -0.30384176       3.76696818 
H       0.41988771       2.01027653       3.47064961 
H       0.72992204       2.38003966       0.85882929 
H       0.19875008      -2.15554850      -0.28033692 
H       2.11742582       0.19607009       0.24183205 
H       3.24661848       1.52127607       0.61560654 
