13
 energy: -16.669036738276 gnorm: 0.000552439830 xtb: 6.2.3 (830e466)
C         1.84338364383541    0.14325478612697    3.58698318521326
C         1.39767678228170    1.36633751886817   -0.09296188875623
C         1.72863598964088    0.98672443523483    2.34936059271352
C         1.50194886443743    0.52224930376300    1.13227139032516
O         1.85872927507198   -1.24374332203854    3.35833113674871
H         2.57507089318738   -1.44250203916309    2.74563329376676
H         2.74420558572431    0.45059916994492    4.14468335229429
H         0.97866118837429    0.32423898784500    4.23472839483256
H         1.84747618280592    2.04782893362406    2.52400192241849
H         1.36767475363897   -0.54078276570274    0.97694438252414
H         0.42302775208743    1.22913828828959   -0.56025431142705
H         2.15501264297557    1.07227798539865   -0.81977646298581
H         1.52898644593872    2.41902871780918    0.14506501233219
13
Properties=species:S:1:pos:R:3 0.000844046662=T 6.2.3=T gnorm:=T -16.631613452682=T pbc="F F F" energy:=T xtb:=T 830e466=T
C       2.29837413       1.46773072       2.59514028 
C       2.38398384       1.38347554       1.04858096 
C       0.84610142       1.11624220       2.42378550 
C       0.91950120       1.04381602       1.09658775 
O       1.16920814      -2.16809304       1.99690902 
H       2.10867580      -2.19870799       1.80408461 
H       2.48843447       2.45640518       3.00896660 
H       2.89837239       0.73576889       3.13384341 
H       0.05869572       0.98636971       3.14405467 
H       0.21489432       0.83220415       0.31260687 
H       0.90278632      -1.24395989       1.94538838 
H       3.03641472       0.60132067       0.66223184 
H       2.62504755       2.32207785       0.55283011 
