13
 energy: -16.669036738276 gnorm: 0.000552439830 xtb: 6.2.3 (830e466)
C         1.84338364383541    0.14325478612697    3.58698318521326
C         1.39767678228170    1.36633751886817   -0.09296188875623
C         1.72863598964088    0.98672443523483    2.34936059271352
C         1.50194886443743    0.52224930376300    1.13227139032516
O         1.85872927507198   -1.24374332203854    3.35833113674871
H         2.57507089318738   -1.44250203916309    2.74563329376676
H         2.74420558572431    0.45059916994492    4.14468335229429
H         0.97866118837429    0.32423898784500    4.23472839483256
H         1.84747618280592    2.04782893362406    2.52400192241849
H         1.36767475363897   -0.54078276570274    0.97694438252414
H         0.42302775208743    1.22913828828959   -0.56025431142705
H         2.15501264297557    1.07227798539865   -0.81977646298581
H         1.52898644593872    2.41902871780918    0.14506501233219
13
Properties=species:S:1:pos:R:3 6.2.3=T gnorm:=T pbc="F F F" 0.000578883655=T energy:=T -16.596474077118=T xtb:=T 830e466=T
C       1.48681690       0.24694405       3.69869440 
C       0.94722061       1.75732040      -0.07415647 
C       1.27850728       0.82444190       2.37892177 
C       1.12960844       1.22882618       1.25960028 
O       1.52036427      -1.16669156       3.68903760 
H       2.15813992      -1.45745299       3.02791147 
H       2.42088516       0.65233631       4.12349642 
H       0.65609608       0.51955747       4.35736634 
H       3.52944724      -0.22400030       1.29034387 
H       4.12174649      -0.72956578       1.22579548 
H      -0.05197046       1.51802300      -0.43670508 
H       1.68326947       1.32490803      -0.75217390 
H       1.07035861       2.84000328      -0.06312218 
