13
 energy: -16.669036738276 gnorm: 0.000552439830 xtb: 6.2.3 (830e466)
C         1.84338364383541    0.14325478612697    3.58698318521326
C         1.39767678228170    1.36633751886817   -0.09296188875623
C         1.72863598964088    0.98672443523483    2.34936059271352
C         1.50194886443743    0.52224930376300    1.13227139032516
O         1.85872927507198   -1.24374332203854    3.35833113674871
H         2.57507089318738   -1.44250203916309    2.74563329376676
H         2.74420558572431    0.45059916994492    4.14468335229429
H         0.97866118837429    0.32423898784500    4.23472839483256
H         1.84747618280592    2.04782893362406    2.52400192241849
H         1.36767475363897   -0.54078276570274    0.97694438252414
H         0.42302775208743    1.22913828828959   -0.56025431142705
H         2.15501264297557    1.07227798539865   -0.81977646298581
H         1.52898644593872    2.41902871780918    0.14506501233219
13
Properties=species:S:1:pos:R:3 6.2.3=T gnorm:=T pbc="F F F" -16.658611947456=T energy:=T xtb:=T 0.000255801580=T 830e466=T
C       1.34178505       0.86002783       2.83993941 
C       0.58768478       1.24518178       0.64338600 
C       2.71770616       0.28047658       2.64696994 
C       2.99497930      -0.72509013       1.83907285 
O       0.41148200       0.52463935       1.83738372 
H       2.22351301      -1.19694157       1.25322597 
H       0.91902049       0.46929172       3.77341861 
H       1.41765648       1.95540987       2.93651971 
H       3.48685147       0.74740152       3.24799148 
H       3.99206618      -1.11718832       1.73506825 
H      -0.16724989       0.88145866      -0.05088915 
H       1.58363614       1.08908082       0.21473859 
H       0.44135884       2.32090189       0.80818462 
