20
 energy: -28.385042326178 gnorm: 0.000845035042 xtb: 6.2.3 (830e466)
C        -2.13353740368721    1.12989353981146    0.45664305823959
C         0.07083479520615    0.22185488671420    0.64400674923472
C         0.49510990939735    0.71452039861757   -0.58472633519703
C         0.96601699494890   -0.50026500143838    1.43509491097307
C         1.79601023320630    0.48887415409289   -1.00405427618118
C         2.25748754047484   -0.72075127989291    1.00491032529593
C         2.68131537422532   -0.22450971000449   -0.21829687453161
C        -2.70211099932029    0.44152658640502   -0.75324604141478
C        -2.44914455629787   -0.80386229493095   -1.10483315362449
O        -1.17538891325748    0.38747697983085    1.17263497225843
H        -2.94209565924840    1.30407419194271    1.17733526575397
H        -1.72874196876129    2.11231373215604    0.16944860547917
H        -0.17828830606599    1.25989380908883   -1.22731540464901
H         0.61950332723008   -0.87736774269396    2.38484568427760
H         2.11319124216616    0.87564402408373   -1.96171441396365
H         2.93861531103764   -1.28249174859640    1.62718713618177
H         3.69218297533479   -0.39670042422798   -0.55533917877567
H        -3.37216755953190    1.06327908498514   -1.33107139016344
H        -1.78541087317532   -1.43002213290771   -0.53149524110072
H        -2.89270146388015   -1.24788105303529   -1.97902439809135
20
Properties=species:S:1:pos:R:3 6.2.3=T gnorm:=T 0.000221502261=T pbc="F F F" energy:=T -28.393930179508=T 830e466=T xtb:=T
C      -2.31534908       1.31958731      -0.12777464 
C      -0.06025637       0.02304806      -0.31951064 
C       0.70480729       1.13183259      -0.66060009 
C       0.57935967      -1.11289417       0.16185211 
C       2.07998730       1.11016006      -0.50930634 
C       1.95453410      -1.13422757       0.31296566 
C       2.70827303      -0.02150620      -0.01863200 
C      -1.54867282       0.04015666      -0.49846203 
C      -2.42251355      -0.61204962       0.58471416 
O      -3.17805282       0.58920025       0.74517076 
H      -1.72514052       2.05750510       0.42515736 
H      -2.86797777       1.81384798      -0.93062056 
H       0.21999644       2.01483187      -1.05126998 
H      -0.00378033      -1.98655833       0.41488005 
H       2.66256577       1.97969434      -0.77621161 
H       2.43881823      -2.02298821       0.69019302 
H       3.78131315      -0.03759393       0.10117166 
H      -1.80083322      -0.31575817      -1.50125577 
H      -1.88730336      -0.86910199       1.50453400 
H      -3.04909513      -1.45168603       0.27399488 
