20
 energy: -28.384866672030 gnorm: 0.000393366578 xtb: 6.2.3 (830e466)
C        -1.68164859059995   -0.47544046130568   -1.41639942511361
C         0.48741318122168   -0.36535757085937   -0.40815850143385
C         0.27191403679003    0.88226487010706    0.16496838557409
C         1.72162244587507   -0.99347205948438   -0.23397197988965
C         1.28257342206334    1.48663102252314    0.89517455780084
C         2.71836878667916   -0.38217968705342    0.49681074894011
C         2.50481485139992    0.86440634422560    1.06488670975101
C        -2.56728402613294   -0.39823133314829   -0.20559373023981
C        -3.46137082041623    0.54914328438936    0.00321708059589
O        -0.42061981164735   -1.05570156983414   -1.15560777165125
H        -1.57049680274608    0.51121133270074   -1.88611975780445
H        -2.13608915917222   -1.15452187131447   -2.14857322642806
H        -0.67597632510529    1.38560830458405    0.05894471530183
H         1.87018360265362   -1.96222577466290   -0.68479460588437
H         1.10353451117041    2.45666415601392    1.33568703454987
H         3.66834324645341   -0.87992231376769    0.62471846820942
H         3.28530059588108    1.34298281823361    1.63675011467566
H        -2.43139251754138   -1.20706148110272    0.49985568841369
H        -4.09526001778633    0.55037112096262    0.87274719677108
H        -3.60302060903949    1.36013086879254   -0.69363170213866
20
Properties=species:S:1:pos:R:3 6.2.3=T gnorm:=T -28.392477020725=T pbc="F F F" energy:=T xtb:=T 830e466=T 0.000529555767=T
C       2.01763010       0.76663581      -2.84979270 
C       0.94086235      -0.18444447      -0.95172400 
C       0.02616060       0.85652314      -0.82920876 
C       0.89006633      -1.23879810      -0.03800560 
C      -0.91693244       0.83585375       0.18102632 
C      -0.04973496      -1.24532082       0.96649579 
C      -0.98108331      -0.21081351       1.09779545 
C      -1.95958507      -0.26840561       2.17522556 
C      -3.01996209       0.51610712       2.32874679 
O       1.91048972      -0.26872982      -1.90459238 
H       1.10700355       0.85914363      -3.45088782 
H       2.84800857       0.48982910      -3.49739392 
H       0.04010751       1.69033040      -1.51400187 
H       1.60509716      -2.03996280      -0.14039577 
H      -1.60883340       1.66038738       0.25812197 
H      -0.07274096      -2.06995825       1.66479278 
H       2.23648452       1.72667213      -2.37179133 
H      -1.78102210      -1.05360238       2.90038270 
H      -3.69254158       0.39187246       3.15987281 
H      -3.26856448       1.30198083       1.63624398 
