20
 energy: -28.384856453112 gnorm: 0.000582003326 xtb: 6.2.3 (830e466)
C        -1.87970648690453    1.25073184717723    0.45789777117466
C         0.28250680190100    0.25424644123726    0.70538282118292
C         0.04289216772591   -0.74435088314737   -0.23114098298521
C         1.50831412411994    0.28630737861373    1.37188706040474
C         1.01828128564361   -1.69465886183884   -0.48657727293571
C         2.47157912216835   -0.66414635310336    1.10688990412451
C         2.23058329787601   -1.66304402290094    0.17623811614811
C        -1.86327338263401    1.60626133578516   -1.00179681917465
C        -2.76895965814253    1.20827976840347   -1.87436665355180
O        -0.59822141790178    1.23671884318125    1.05031261670017
H        -2.41495930692968    2.03309749006740    1.00996992369402
H        -2.39983424608630    0.29732823413661    0.62444877172063
H        -0.88922394868637   -0.78550282718567   -0.77231957540726
H         1.67743757267016    1.06959313242782    2.09386211115879
H         0.82061256472537   -2.46639187843864   -1.21640327789143
H         3.41601103671466   -0.62711739171305    1.62938239258854
H         2.98384294444551   -2.40802586917983   -0.03021501769077
H        -1.04422509750984    2.24757994236236   -1.29644223967722
H        -2.73441173105701    1.50971244892360   -2.90679425979059
H        -3.58844564213780    0.56868122519211   -1.58963538979208
20
Properties=species:S:1:pos:R:3 6.2.3=T gnorm:=T 0.000565871936=T pbc="F F F" energy:=T xtb:=T 830e466=T -28.392061297325=T
C      -1.94463354       1.20028131       2.18092776 
C       0.03189542       0.24090565       1.25865375 
C      -0.44825777       0.28184137      -0.04152723 
C       1.31067792      -0.26200366       1.50668374 
C       0.33803994      -0.16971551      -1.10289158 
C       2.09282880      -0.70234993       0.45953761 
C       1.61807100      -0.65151628      -0.83893676 
C      -0.13861088      -0.14934337      -2.48203336 
C      -1.39854424      -0.03073948      -2.88166204 
O      -0.65628998       0.66612780       2.35709016 
H      -2.28873755       1.47357415       3.17704135 
H      -2.63180366       0.46344949       1.75177483 
H      -1.42855244       0.67706032      -0.25145797 
H       1.66428875      -0.28844786       2.52501980 
H      -1.92743404       2.09346256       1.54766673 
H       3.08350957      -1.08451270       0.65691190 
H       2.23653608      -0.99637407      -1.65460034 
H       0.63811889      -0.27219825      -3.22727909 
H      -1.65798321      -0.03692183      -3.92650030 
H      -2.22231908       0.06272029      -2.19383896 
