20
 energy: -28.382621561164 gnorm: 0.000269362012 xtb: 6.2.3 (830e466)
C        -1.83715750698144    0.36666310963655   -0.09065213345711
C         0.47721801417583   -0.22829474260190   -0.05040967188896
C         0.91931650109229    1.08965726099833   -0.07038371747857
C         1.41533628859534   -1.26187925909819   -0.01449184377357
C         2.27871975284249    1.35967712992581   -0.05438030862341
C         2.76454943671634   -0.97984250040335    0.00120353140576
C         3.20478352480947    0.33509315157454   -0.01861927640206
C        -3.16543295219879   -0.33120554076217   -0.09510137725720
C        -4.33078656686403    0.28631010498695   -0.09258940353330
O        -0.82663072507087   -0.61803116413453   -0.06379711886929
H        -1.75680450675855    1.02190361166484    0.79033247476077
H        -1.73748569002907    0.99241905550858   -0.99117834780424
H         0.22153324767440    1.91221511544013   -0.09852366540190
H         1.05445176706771   -2.27834653676454    0.00045581897909
H         2.60985000139895    2.38793586068851   -0.07030709440152
H         3.47874723334734   -1.78945826406313    0.02929933222267
H         4.26120268049479    0.55612011737311   -0.00619746341776
H        -3.09617353723411   -1.40906658626159   -0.10148540775323
H        -5.25840107699700   -0.25814228352868   -0.09681859335108
H        -4.40612588608108    1.36146235982073   -0.08566573395509
20
Properties=species:S:1:pos:R:3 6.2.3=T gnorm:=T pbc="F F F" 0.000701910999=T energy:=T xtb:=T -28.385256758448=T 830e466=T
C      -1.17423373       0.40667928      -0.10283755 
C       0.33067843       0.33576068      -0.07703364 
C       1.06129675       1.51815152      -0.10647974 
C       1.00297622      -0.87478800      -0.01121112 
C       2.44261659       1.48864709      -0.06717355 
C       2.38687180      -0.90281790       0.02592316 
C       3.10965554       0.27638485      -0.00009894 
C      -3.08133167      -0.98235017      -0.12753134 
C      -3.98313738      -0.01607034      -0.04943163 
O      -1.73424415      -0.88622164      -0.16785038 
H      -1.52781505       0.92043503       0.80514986 
H      -1.50062233       1.00035232      -0.97081870 
H       0.54184760       2.46481606      -0.15890123 
H       0.43635479      -1.79214029       0.00919382 
H       3.00058413       2.41330058      -0.08863516 
H       2.90156275      -1.85113263       0.07678794 
H       4.18896646       0.25344857       0.03148907 
H      -3.36847707      -2.02479679      -0.16837090 
H      -5.02774365      -0.26116577      -0.02180201 
H      -3.73509603       1.02869758      -0.00967798 
