  48
        -65.77962536
 Si         2.4130489002       -2.1296615015        0.2072456008
 C          2.3472910417       -3.1638335501        1.7982097704
 H          2.6772121754       -2.5852975882        2.6573156984
 H          2.9775777343       -4.0446370763        1.7302433711
 H          1.3315961443       -3.4934072295        1.9968925915
 C          1.7970966316       -3.0860270804       -1.3187530781
 H          2.4320346960       -3.9386018717       -1.5369001983
 H          1.7779479567       -2.4545578532       -2.2038989388
 H          0.7887230781       -3.4560236447       -1.1578259938
 C          4.1160375424       -1.3413618995       -0.0890422591
 O         -1.4787972632        0.2579065716        2.8276727046
 H          4.4146199684       -0.7096746092        0.7416649916
 H          4.1296811605       -0.7319067654       -0.9874851819
 H          4.8696645300       -2.1119591042       -0.2045899785
 C         -1.5594145534        0.6892805186        1.7123349339
 C         -2.6906927497        1.5265071277        1.1493326806
 H         -3.6375113763        1.2796796596        1.6274029722
 H         -2.4693862957        2.5759445015        1.3575936724
 C         -0.4908769848        0.5796394041        0.6343493423
 C          0.1714431149       -0.7657142103        0.5884343397
 O          1.4734604236       -0.7389098934        0.3937318798
 C          0.3035710831        1.9304439825        0.7152367690
 C         -1.1875319339        1.0683777461       -0.6915730526
 C         -2.6754215821        1.2379629122       -0.3509686849
 C         -0.9281141296        0.3226734654       -2.0006373022
 O         -0.4579844464       -1.7904696973        0.6724933981
 C         -3.4614641285       -0.0516461091       -0.6060017887
 C         -1.7751058190       -0.9311451272       -2.1848587788
 H          0.1341731024        0.0735407123       -2.0578726873
 H         -1.1464530331        1.0209787009       -2.8142703911
 C         -3.2477280795       -0.5851918456       -2.0153451378
 H         -4.5220508930        0.1388511144       -0.4271925114
 H         -3.1271974038       -0.8095601293        0.1067843232
 H         -1.4972432512       -1.6813790533       -1.4442825829
 H         -1.5885805974       -1.3466251450       -3.1773708925
 H         -3.5426410672        0.1675179996       -2.7510616338
 H         -3.8637418747       -1.4720020599       -2.1718638507
 C          1.7916199103        2.2160028941        0.4984170665
 C         -0.2960698718        2.2831843966       -0.6150643801
 H         -0.0552053888        2.5229346512        1.5615859031
 C          0.5052467989        3.0389047186       -1.3477620935
 C          1.7332930828        3.3754279317       -0.5275422325
 H          1.6233631767        4.3391892977       -0.0216574493
 H          2.6272823434        3.4210418890       -1.1485228837
 H          2.2917012838        1.3585922774        0.0532717639
 H          2.3108882668        2.4895424049        1.4150474632
 H          0.3815193708        3.3638491118       -2.3649570922
 H         -3.1030316048        2.0569947875       -0.9366550075
