  48
        -65.77960710
 Si         2.3286588754       -2.1840500080       -0.2410337372
 C          1.1825121929       -3.4527261333       -1.0766607952
 H          0.3586639509       -3.7156025545       -0.4195834673
 H          1.7136303745       -4.3663173534       -1.3235912516
 H          0.7564422175       -3.0600123108       -1.9968484607
 C          3.7142419860       -1.6048195766       -1.4049956072
 H          4.3742146694       -2.4316206749       -1.6416501001
 H          4.3157677190       -0.8222723755       -0.9531502311
 H          3.3218657082       -1.2194051957       -2.3411685490
 C          2.9799932926       -2.7781802447        1.4407218128
 O         -0.4274440144        0.9570352907        3.0609572385
 H          3.5485550548       -3.6980005405        1.3488107030
 H          2.1561856241       -2.9609379626        2.1247052370
 H          3.6261773396       -2.0334012875        1.8984013345
 C         -0.8892320599        1.1364927973        1.9696668259
 C         -2.1624340679        1.8922557352        1.6429271793
 H         -2.8881656282        1.8071962680        2.4503797667
 H         -1.9075374815        2.9482205688        1.5264196764
 C         -0.2444518801        0.7365922444        0.6510917128
 C          0.3909937923       -0.6218346261        0.6792153395
 O          1.4887480033       -0.7328230479       -0.0410472213
 C          0.5023802263        2.0277468465        0.1619057564
 C         -1.3551851905        0.9661607346       -0.4431114899
 C         -2.6452722304        1.2839353740        0.3271706994
 C         -1.5347120034       -0.0577361097       -1.5635653615
 O         -0.1039918076       -1.5502630444        1.2668632704
 C         -3.4382204341        0.0121416990        0.6441318837
 C         -2.3567087642       -1.2781978053       -1.1662997247
 H         -0.5486631529       -0.3641630841       -1.9204851780
 H         -2.0379802417        0.4561229479       -2.3881519723
 C         -3.6956538218       -0.8309153268       -0.5966598158
 H         -4.3823235603        0.2924102360        1.1165452027
 H         -2.8658361004       -0.5855683250        1.3579521000
 H         -1.8236419713       -1.8588778059       -0.4130070901
 H         -2.5039736763       -1.9123719271       -2.0430209408
 H         -4.2423709947       -0.2466878048       -1.3413208464
 H         -4.3028166772       -1.6985523511       -0.3339358756
 C          1.8262795612        2.1772529382       -0.5912917158
 C         -0.5150512534        2.1174432617       -0.9380009918
 H          0.4345917805        2.8068354300        0.9263614885
 C         -0.0203242944        2.6495022906       -2.0435457711
 C          1.4042452785        3.0868190327       -1.7723826069
 H          1.4499398094        4.1422309828       -1.4879165458
 H          2.0379426914        2.9460387063       -2.6472936266
 H          2.1669652279        1.2172278335       -0.9730051031
 H          2.6154114708        2.6152861941        0.0171724503
 H         -0.4837193605        2.7519801017       -3.0080888077
 H         -3.2655036933        1.9765254976       -0.2492624855
