  48
        -65.77955674
 Si         2.7488322487        1.5088242537        0.3777767902
 C          3.8139187055        0.0123867321       -0.1174674711
 H          3.5561783049       -0.3503743892       -1.1095832995
 H          3.6701482614       -0.8073481683        0.5804049059
 H          4.8701246231        0.2617368598       -0.1219398597
 C          2.8689821323        2.9152346580       -0.8946553928
 H          2.5698598177        2.5898325648       -1.8864200097
 H          3.8898181909        3.2739847327       -0.9602783365
 H          2.2419618433        3.7584995531       -0.6221284392
 C          3.0834176391        2.0916102057        2.1540946608
 O         -1.6902892234       -0.4804356941        2.7837656585
 H          2.4620383323        2.9451440646        2.4134747270
 H          4.1195823258        2.3830059986        2.2922972911
 H          2.8619917798        1.2983304861        2.8624205705
 C         -1.7391612946       -0.7333249841        1.6134644794
 C         -2.7142224091       -1.6779833170        0.9363636376
 H         -2.9996033289       -2.4920791307        1.6009348675
 H         -3.6150890426       -1.1122266436        0.6876206560
 C         -0.9085699521       -0.0781722685        0.5213085973
 C          0.5313458477        0.1328230739        0.8836651835
 O          1.1157773189        1.1130213359        0.2204062901
 C         -1.8220633646        1.0733581727       -0.0335489718
 C         -1.1862796170       -0.9202822171       -0.7820068140
 C         -1.9836090715       -2.1487867476       -0.3200170923
 C         -0.0337756634       -1.2500286620       -1.7289071129
 O          1.1206766234       -0.5753896826        1.6588689743
 C         -1.0566971256       -3.3055564396        0.0684054484
 C          0.8270951697       -2.4198018181       -1.2682813408
 H          0.5791074452       -0.3558913058       -1.8619432578
 H         -0.4763671917       -1.4937285046       -2.6993606279
 C         -0.0533240389       -3.6380980349       -1.0267300973
 H         -1.6647647050       -4.1814788219        0.3051343146
 H         -0.5070491141       -3.0222133733        0.9697314336
 H          1.3446160866       -2.1615156523       -0.3435583708
 H          1.5799739451       -2.6348367417       -2.0295343047
 H         -0.5773540928       -3.9072404014       -1.9473241554
 H          0.5559162955       -4.4905063600       -0.7220924837
 C         -1.4471318869        2.4665538440       -0.5423812047
 C         -1.9420525229        0.2782117264       -1.3005310799
 H         -2.7342591476        1.1417893365        0.5654609109
 C         -2.0703166533        1.0467431057       -2.3697137513
 C         -2.1583148336        2.4900794333       -1.9187691739
 H         -3.1984361889        2.8130455073       -1.8150619901
 H         -1.6666183568        3.1585278118       -2.6245964046
 H         -0.3718451885        2.5500462029       -0.6861558850
 H         -1.7795049949        3.2656281681        0.1179469045
 H         -2.0811923251        0.7626498181       -3.4063866814
 H         -2.6715297413       -2.4689665468       -1.1078612175
