  48
        -65.77949195
 Si         2.7362248198        1.4951720830        0.4142072932
 C          3.8299854021       -0.0226091037        0.0707529546
 H          3.6306141811       -0.4446738436       -0.9112740468
 H          3.6472197472       -0.7999366728        0.8069747320
 H          4.8843079802        0.2313149814        0.1123327969
 C          2.9042155854        2.8099162232       -0.9478719053
 H          2.2664060316        3.6680437151       -0.7599028700
 H          2.6439955443        2.4147584343       -1.9251741129
 H          3.9264637242        3.1670011932       -0.9989913916
 C          2.9905463413        2.2030766134        2.1583030610
 O         -1.7666110120       -0.5149988418        2.7488463203
 H          2.7437893791        1.4588415498        2.9102086345
 H          2.3535000232        3.0669889727        2.3309669402
 H          4.0179827562        2.5126936929        2.3198806116
 C         -1.7801433573       -0.7566854941        1.5752995069
 C         -2.7316058306       -1.6989100286        0.8615508430
 H         -3.0297263637       -2.5223368004        1.5088083202
 H         -3.6289303246       -1.1353743094        0.5955817222
 C         -0.9236800497       -0.0864686217        0.5130305506
 C          0.5043550939        0.1360280400        0.9137901776
 O          1.1117929461        1.0819437666        0.2203751228
 C         -1.8286314072        1.0683305489       -0.0506237607
 C         -1.1642701617       -0.9123040355       -0.8078255683
 C         -1.9650969246       -2.1509351108       -0.3801775811
 C          0.0126124838       -1.2255274180       -1.7295586664
 O          1.0672101549       -0.5320576622        1.7418497298
 C         -1.0405716506       -3.3053227380        0.0215469458
 C          0.8720689245       -2.3898998807       -1.2536436232
 H          0.6204090354       -0.3254667946       -1.8429870062
 H         -0.4047774722       -1.4678795646       -2.7113859854
 C         -0.0026807366       -3.6186518911       -1.0467701830
 H         -1.6484702517       -4.1883788853        0.2306063500
 H         -0.5200133933       -3.0285263882        0.9420457128
 H          1.3604480930       -2.1330972266       -0.3125574984
 H          1.6485875317       -2.5917113309       -1.9945071855
 H         -0.4971794817       -3.8850979873       -1.9842897414
 H          0.6058193289       -4.4677694631       -0.7315745282
 C         -1.4443266857        2.4688727633       -0.5306407571
 C         -1.9124784478        0.2893037102       -1.3303309096
 H         -2.7556794987        1.1257380249        0.5261788079
 C         -2.0141714547        1.0716600500       -2.3923813329
 C         -2.1184395635        2.5087561268       -1.9252062317
 H         -3.1618232092        2.8278853766       -1.8451266918
 H         -1.6097875408        3.1875074926       -2.6088187689
 H         -0.3656768033        2.5561582923       -0.6449060015
 H         -1.7960911633        3.2584981892        0.1310438487
 H         -1.9958266558        0.8013140620       -3.4325982349
 H         -2.6295620528       -2.4676265458       -1.1892177900
