  48
        -65.77941317
 Si         3.1778774989        0.2690791864       -0.0513024806
 C          3.4566280733        1.0079456643       -1.7843513740
 H          2.8446064792        1.8941468474       -1.9258638908
 H          3.2007992593        0.3017059238       -2.5705720534
 H          4.4934677115        1.2939327874       -1.9289069969
 C          3.7231799258        1.4550570818        1.3290020294
 H          3.2374089291        2.4212894543        1.2226197258
 H          4.7958967221        1.6190957186        1.3215016621
 H          3.4526826540        1.0575088918        2.3038633735
 C          3.9128806829       -1.4734121688        0.1110636094
 O          0.2345903878       -0.9515331033        2.5136434849
 H          4.9954057701       -1.4371884245        0.0626569831
 H          3.5683485361       -2.1325786459       -0.6802705592
 H          3.6365477756       -1.9251491194        1.0584816061
 C         -0.5638645736       -0.9434986182        1.6158671971
 C         -1.6360866152       -1.9848471960        1.3809976657
 H         -1.2476974344       -2.9798906476        1.5975978416
 H         -2.4370409078       -1.7909009539        2.0986925703
 C         -0.7411745336        0.1474595687        0.5873458123
 C          0.5450588205        0.7721202066        0.1205561561
 O          1.5483556722       -0.0797570769        0.1840405922
 C         -1.9045920616        1.0950173152        1.0671142660
 C         -1.6996030909       -0.4236472131       -0.5235420268
 C         -2.1309024625       -1.8348229196       -0.0622878438
 C         -1.2407836021       -0.3945626783       -1.9756202770
 O          0.6573120943        1.8970214352       -0.2943059563
 C         -1.5349347062       -2.9161208182       -0.9710814750
 C         -0.0792481025       -1.3534564116       -2.2678936488
 H         -0.9564292941        0.6264418075       -2.2360570634
 H         -2.1072071417       -0.6555586360       -2.5883830630
 C         -0.0971334424       -2.5633317656       -1.3307471152
 H         -2.1246741233       -3.0022911272       -1.8858179899
 H         -1.5800269962       -3.8810990382       -0.4625276161
 H          0.8708468466       -0.8308566999       -2.1626424782
 H         -0.1564068668       -1.6861441546       -3.3052947854
 H          0.3948273097       -3.4115960148       -1.8094415807
 H          0.4569094786       -2.3310101931       -0.4191585125
 C         -1.9501392464        2.6224813360        1.0349646164
 C         -2.6355415176        0.7037548010       -0.1816705325
 H         -2.3318877820        0.7139054470        1.9973635692
 C         -3.3265342797        1.7010338423       -0.7051479280
 C         -3.2448867271        2.8910578946        0.2270785706
 H         -4.1166374490        2.9379333044        0.8867727253
 H         -3.1931380135        3.8262492282       -0.3289508873
 H         -1.0919080228        3.0140160942        0.4920258286
 H         -1.9748238898        3.0681835272        2.0276355646
 H         -3.8517714129        1.7339604282       -1.6424147559
 H         -3.2221807363       -1.9074748821       -0.0979192746
