  48
        -65.77931250
 Si         2.8689816583        1.8192145657        1.0023644723
 C          2.7067089033        3.4304756836        0.0009926404
 H          3.6169083671        4.0198206842        0.0429527164
 H          1.8963657611        4.0511138792        0.3755108024
 H          2.4984189678        3.2130994677       -1.0428699408
 C          2.9699265334        2.1311591601        2.8714286905
 H          3.8852604502        2.6560360801        3.1209350090
 H          2.9596598636        1.1975213096        3.4246077560
 H          2.1373653792        2.7313633366        3.2252511054
 C          4.2598500547        0.6995375667        0.3530477321
 O          1.3653455881       -2.1032014722        1.2144561396
 H          4.2286155781       -0.2700911207        0.8438352812
 H          5.2418198856        1.1289371647        0.5232515264
 H          4.1503842254        0.5294649860       -0.7145321380
 C          0.4962609797       -1.8970619052        0.4128271220
 C         -0.1297860460       -2.9052906797       -0.5188712073
 H          0.4993151709       -2.9334805544       -1.4136866803
 H         -0.1397895331       -3.9031121929       -0.0818268403
 C         -0.1834153837       -0.5604657082        0.1605494564
 C          0.9027955359        0.4319979645       -0.1616446384
 O          1.4216667072        0.9616061219        0.9224212293
 C         -1.2180905401       -0.1857184216        1.2751261915
 C         -1.3644675943       -0.8197139982       -0.8290110262
 C         -1.5161581269       -2.3596659171       -0.8639766113
 C         -1.3286186628       -0.2231884035       -2.2248522303
 O          1.2970620688        0.6580128911       -1.2774359483
 C         -2.0662069695       -2.8456485979       -2.2037682878
 C         -2.6246735022       -0.5229125571       -2.9873627988
 H         -0.4696578014       -0.6350377448       -2.7552938354
 H         -1.1771679248        0.8543968359       -2.1609833958
 C         -3.1859613722       -1.9087816443       -2.6450098199
 H         -2.4408259773       -3.8655492412       -2.0992063014
 H         -1.2800984363       -2.8560593232       -2.9604089209
 H         -2.4192001133       -0.4578190198       -4.0570703066
 H         -3.3722039664        0.2348169894       -2.7516091114
 H         -3.9067471299       -1.8249036746       -1.8290578873
 H         -3.7092160832       -2.3231435785       -3.5077986750
 C         -1.3714477797        1.1632507560        1.9781182894
 C         -2.2378429657       -0.1150528407        0.1719997733
 H         -1.3384354795       -1.0141706059        1.9763735659
 C         -3.1041347009        0.8678680934        0.3400575582
 C         -2.8497646192        1.5207090305        1.6827840167
 H         -3.5111824028        1.1118615093        2.4522029087
 H         -3.0112422323        2.5975542024        1.6396645718
 H         -0.7190223838        1.9100573318        1.5272735253
 H         -1.1542652174        1.1143553052        3.0430969504
 H         -3.8681132981        1.2124781176       -0.3329548805
 H         -2.2172585751       -2.6549332378       -0.0759189748
