  48
        -65.77928241
 Si         2.8730885243        1.8232056655        0.9789100436
 C          2.8313465922        3.3425267883       -0.1674930758
 H          3.7650784706        3.8944493431       -0.1331659389
 H          2.0344228821        4.0280685794        0.1100485944
 H          2.6602784791        3.0401583283       -1.1968097255
 C          2.8875683566        2.3009712258        2.8156072528
 H          2.0587796367        2.9549833899        3.0688806296
 H          3.8061036092        2.8198904010        3.0660039134
 H          2.8180166205        1.4226555821        3.4492815998
 C          4.2458571682        0.5956387206        0.5116452448
 O          1.3432581946       -2.0922900479        1.2574996584
 H          5.2347524612        0.9881138472        0.7253407108
 H          4.2041295355        0.3550599216       -0.5472016343
 H          4.1275637535       -0.3341633221        1.0627289431
 C          0.4835207559       -1.8912842021        0.4444758925
 C         -0.1365076971       -2.9055975628       -0.4840956287
 H          0.4982662663       -2.9387329583       -1.3747542133
 H         -0.1493805368       -3.9006855757       -0.0409890767
 C         -0.1883917624       -0.5541125676        0.1725986752
 C          0.9092577655        0.4189914863       -0.1693077405
 O          1.4026708464        1.0051098759        0.8972376292
 C         -1.2230863139       -0.1605223221        1.2795460092
 C         -1.3676109700       -0.8217200250       -0.8170150513
 C         -1.5205027980       -2.3615886737       -0.8414570938
 C         -1.3262453922       -0.2345282588       -2.2167728441
 O          1.3337519798        0.5809750911       -1.2853185278
 C         -2.0620658615       -2.8569728187       -2.1812463298
 C         -2.6189471971       -0.5396015113       -2.9827284735
 H         -0.4647251430       -0.6491176494       -2.7408223053
 H         -1.1759042753        0.8437541275       -2.1590838999
 C         -3.1801530842       -1.9243947564       -2.6356043800
 H         -2.4363946482       -3.8764976889       -2.0720709521
 H         -1.2713066213       -2.8716742418       -2.9329451035
 H         -2.4093693484       -0.4794686773       -4.0519354431
 H         -3.3681861075        0.2184959880       -2.7535869966
 H         -3.9066446972       -1.8368162534       -1.8251078763
 H         -3.6968538642       -2.3449200116       -3.4993660332
 C         -1.3782281714        1.1980164558        1.9635637035
 C         -2.2424141971       -0.1059710464        0.1750785712
 H         -1.3450991155       -0.9786248893        1.9927525069
 C         -3.1109470466        0.8770872930        0.3304101359
 C         -2.8574638919        1.5481591716        1.6643035478
 H         -3.5175516907        1.1480766084        2.4394522694
 H         -3.0214341018        2.6239772561        1.6070112876
 H         -0.7274617620        1.9394037230        1.5017471956
 H         -1.1602718017        1.1644622689        3.0289765608
 H         -3.8761167064        1.2110239548       -0.3466617619
 H         -2.2266841322       -2.6506328166       -0.0556021216
