  48
        -65.77923381
 Si         2.9342421931        1.7320964163        0.1617477892
 C          2.7004149979        3.5931076222       -0.1590101144
 H          2.3809475769        3.7936702634       -1.1775816465
 H          3.6303818622        4.1269067885        0.0037334638
 H          1.9559303051        4.0173377820        0.5077464047
 C          3.4943678908        1.3576092231        1.9397157005
 H          3.3136695271        0.3166412641        2.1937440230
 H          2.9446603199        1.9609125234        2.6568041165
 H          4.5511613235        1.5605244878        2.0797973223
 C          4.0685271294        0.9311481152       -1.1358275590
 O          0.6824827144       -0.9288692138        2.3569837428
 H          3.7071247701        1.1143758217       -2.1441561150
 H          4.1075212613       -0.1460622281       -1.0028048110
 H          5.0826394265        1.3133502613       -1.0719581999
 C         -0.2690451432       -1.0130318513        1.6306638031
 C         -1.5098370982       -1.8477756186        1.8618626535
 H         -1.2864162066       -2.7239817769        2.4692525597
 H         -2.2321624211       -1.2341372040        2.4050996989
 C         -0.4801487636       -0.2433442940        0.3356423063
 C          0.8372173922        0.0449557897       -0.3312716781
 O          1.3538890177        1.1778616378        0.0951908178
 C         -1.4055703313        0.9613554699        0.7239613953
 C         -1.6815529737       -0.9500073844       -0.3842958337
 C         -2.0107144759       -2.1931524297        0.4595773513
 C         -1.6511614900       -1.2143837598       -1.8891326912
 O          1.3720665481       -0.6908310654       -1.1182949915
 C         -1.2581282142       -3.4319048148       -0.0345316590
 C         -0.9149861257       -2.4858419886       -2.2922941183
 H         -1.2036569223       -0.3532364906       -2.3886123490
 H         -2.6922871635       -1.2854093780       -2.2177608492
 C         -1.4703913195       -3.6743787449       -1.5216295354
 H         -1.5851431852       -4.2987108924        0.5446962208
 H         -0.1897959391       -3.2878234216        0.1455614228
 H          0.1469307999       -2.3716395434       -2.0764786517
 H         -1.0310992722       -2.6377058438       -3.3670570290
 H         -2.5364292286       -3.7933805613       -1.7320774713
 H         -0.9615922786       -4.5914544377       -1.8229145542
 C         -1.3720789775        2.3832075249        0.1632504807
 C         -2.4724060173        0.3069731334       -0.1071055136
 H         -1.5884482346        0.9947438902        1.8005322321
 C         -3.2562975514        1.1912754390       -0.7033359843
 C         -2.8515156777        2.5795154703       -0.2520494160
 H         -3.4518497037        2.9176032304        0.5974956382
 H         -2.9622228892        3.3073368579       -1.0549365933
 H         -0.7347810881        2.4364270062       -0.7192102946
 H         -1.0294540926        3.1225101174        0.8841856668
 H         -4.0342063635        1.0217772959       -1.4254228743
 H         -3.0874219580       -2.3842687912        0.4398934107
