  48
        -65.77922367
 Si         2.8752538425        1.7982271745        1.0368936718
 C          2.5404435708        3.5430880652        0.3511232057
 H          3.4238927298        4.1704864984        0.4082544716
 H          1.7480703149        4.0415729155        0.9041161673
 H          2.2344196263        3.4940697088       -0.6902619226
 C          3.1624032013        1.7883897491        2.9120103890
 H          4.0846003250        2.3017746655        3.1602688957
 H          3.2328552727        0.7732122475        3.2893011796
 H          2.3551043405        2.2809300879        3.4449338741
 C          4.2391154060        0.8951677116        0.0697683003
 O          1.4094912551       -2.0737436223        1.1637696623
 H          5.2062983354        1.3728502965        0.1888497779
 H          4.0067766290        0.8709928120       -0.9913080790
 H          4.3308588603       -0.1335783744        0.4092233766
 C          0.5208558328       -1.8791314817        0.3809605661
 C         -0.1093141826       -2.8977125875       -0.5374867616
 H          0.5115678766       -2.9316650812       -1.4378321695
 H         -0.1098555525       -3.8918571847       -0.0919039495
 C         -0.1814189179       -0.5535206806        0.1399970325
 C          0.8761213408        0.4781485267       -0.1546277856
 O          1.4550462642        0.8991124391        0.9468609338
 C         -1.2205042092       -0.2005653629        1.2598175611
 C         -1.3621706659       -0.8217841978       -0.8471597242
 C         -1.5020518631       -2.3634026375       -0.8741677433
 C         -1.3369669529       -0.2331275060       -2.2463823443
 O          1.1967511942        0.8286130646       -1.2613725262
 C         -2.0589262772       -2.8601929918       -2.2071915793
 C         -2.6353309045       -0.5452846784       -3.0000105449
 H         -0.4788059209       -0.6441056619       -2.7791302008
 H         -1.1907303350        0.8452100836       -2.1902819051
 C         -3.1868450496       -1.9321513623       -2.6461175628
 H         -2.4270696205       -3.8815348113       -2.0939116143
 H         -1.2782798178       -2.8709975310       -2.9695276675
 H         -2.4359646454       -0.4857276768       -4.0711941637
 H         -3.3859401190        0.2095662396       -2.7649661181
 H         -3.9026287919       -1.8476192770       -1.8258602854
 H         -3.7134668687       -2.3543617576       -3.5030433548
 C         -1.3774120977        1.1423632073        1.9732560468
 C         -2.2388414592       -0.1245401414        0.1558379867
 H         -1.3347378123       -1.0362744456        1.9530211731
 C         -3.1052642137        0.8575732610        0.3277127837
 C         -2.8544301085        1.5030219652        1.6746512523
 H         -3.5189811860        1.0915013778        2.4399094545
 H         -3.0141906757        2.5802800535        1.6361048427
 H         -0.7230827401        1.8931661858        1.5313010167
 H         -1.1648204109        1.0850030426        3.0387696836
 H         -3.8671140139        1.2063376814       -0.3454944357
 H         -2.1948259227       -2.6603681671       -0.0794815372
