  48
        -65.77922181
 Si         2.8719031002        1.8309552169        0.9637972202
 C          2.9042642558        3.2732232667       -0.2781394510
 H          3.8456455712        3.8118093130       -0.2395270177
 H          2.1089106537        3.9873197947       -0.0793758549
 H          2.7703523307        2.9073727490       -1.2922027225
 C          2.8215653516        2.4291159039        2.7645081619
 H          3.7383248987        2.9499120338        3.0172551807
 H          2.7117149190        1.5963480984        3.4516357563
 H          1.9951346869        3.1109300247        2.9402825686
 C          4.2399795925        0.5548758438        0.6323706113
 O          1.3189955344       -2.1106723563        1.2802964811
 H          4.2472516046        0.2597111061       -0.4134158807
 H          4.0741311892       -0.3426260262        1.2232648852
 H          5.2248687589        0.9395750362        0.8764602059
 C          0.4713402509       -1.9018000582        0.4566692075
 C         -0.1452237134       -2.9085784305       -0.4819707030
 H          0.4929439250       -2.9341100325       -1.3704583433
 H         -0.1610501060       -3.9072539824       -0.0472062482
 C         -0.1884498257       -0.5587682674        0.1811558202
 C          0.9202564414        0.3976281307       -0.1719158158
 O          1.3946664542        1.0255873507        0.8792257022
 C         -1.2203320787       -0.1553520433        1.2863352734
 C         -1.3685375335       -0.8202288101       -0.8094437595
 C         -1.5268926018       -2.3592210270       -0.8403255413
 C         -1.3228098283       -0.2271638153       -2.2067071436
 O          1.3682994796        0.5117096616       -1.2848173885
 C         -2.0672221800       -2.8471746265       -2.1833176758
 C         -2.6148351541       -0.5247963130       -2.9766783183
 H         -0.4613111370       -0.6417521179       -2.7307373157
 H         -1.1696566372        0.8505688648       -2.1436682255
 C         -3.1813643772       -1.9089419858       -2.6358148108
 H         -2.4450348442       -3.8659449749       -2.0793904408
 H         -1.2748974541       -2.8610325500       -2.9333441882
 H         -2.4027959124       -0.4614530107       -4.0452109380
 H         -3.3619852442        0.2349953679       -2.7463003518
 H         -3.9087033223       -1.8218950455       -1.8260210155
 H         -3.6983194756       -2.3241575805       -3.5019744657
 C         -1.3729829423        1.2058457257        1.9657105201
 C         -2.2411719275       -0.1024203879        0.1831399632
 H         -1.3447982288       -0.9700629616        2.0031701619
 C         -3.1099026372        0.8804868744        0.3385137687
 C         -2.8536836821        1.5533933583        1.6710036342
 H         -3.5105040074        1.1522538105        2.4484175139
 H         -3.0199603853        2.6288446923        1.6137358946
 H         -0.7247757853        1.9455497270        1.4978114367
 H         -1.1505331452        1.1768667377        3.0303190026
 H         -3.8767028286        1.2130449692       -0.3374070125
 H         -2.2356264809       -2.6489947007       -0.0570091513
