  48
        -65.77920567
 Si         2.8678873710        1.8011316509        1.0515071842
 C          2.4809642091        3.5565230778        0.4218892689
 H          3.3504101963        4.2028859784        0.4822347764
 H          1.6870091538        4.0202496209        1.0022034356
 H          2.1582097174        3.5298871582       -0.6152638703
 C          3.1795503468        1.7439396773        2.9218406745
 H          4.0940958267        2.2692345792        3.1735044954
 H          3.2755470635        0.7201262998        3.2689972908
 H          2.3691609562        2.2040892748        3.4785365249
 C          4.2415060533        0.9625096571        0.0411677643
 O          1.4212962601       -2.0985519469        1.1246767304
 H          3.9911983783        0.9548449499       -1.0160396948
 H          4.3716258733       -0.0701190759        0.3551740893
 H          5.1952120810        1.4677870416        0.1547482750
 C          0.5272572525       -1.8931650930        0.3508688668
 C         -0.1107785289       -2.9000460778       -0.5752020282
 H          0.5056350352       -2.9269910261       -1.4788154042
 H         -0.1121756790       -3.8986759772       -0.1397455916
 C         -0.1750410846       -0.5640541852        0.1312533760
 C          0.8787773933        0.4747161619       -0.1518807780
 O          1.4665929215        0.8738669661        0.9530070048
 C         -1.2094029905       -0.2263587679        1.2605821649
 C         -1.3606256785       -0.8175529211       -0.8541549489
 C         -1.5036501957       -2.3585068328       -0.8994672643
 C         -1.3408401209       -0.2117881342       -2.2461178720
 O          1.1879089261        0.8502352313       -1.2536426914
 C         -2.0672338096       -2.8377890223       -2.2360849829
 C         -2.6432697721       -0.5123088802       -2.9974519956
 H         -0.4859593166       -0.6178296218       -2.7878870262
 H         -1.1923106487        0.8654780900       -2.1775463771
 C         -3.1955528118       -1.9025920718       -2.6584672505
 H         -2.4365606633       -3.8598726670       -2.1338298483
 H         -1.2899994331       -2.8404071512       -3.0019762724
 H         -2.4488131618       -0.4395703270       -4.0687276434
 H         -3.3914394305        0.2408006810       -2.7493837010
 H         -3.9076220181       -1.8271474280       -1.8340962800
 H         -3.7266020561       -2.3132623984       -3.5182673949
 C         -1.3609686061        1.1059983072        1.9947437601
 C         -2.2316539674       -0.1320964838        0.1617117322
 H         -1.3221928354       -1.0722944939        1.9414713132
 C         -3.0947944364        0.8497565507        0.3506309385
 C         -2.8377775353        1.4752354752        1.7057879850
 H         -3.5013119247        1.0550546716        2.4672064518
 H         -2.9942524941        2.5534280884        1.6829267388
 H         -0.7058764100        1.8618445978        1.5626682558
 H         -1.1456871335        1.0317375656        3.0586833804
 H         -3.8580018431        1.2100819058       -0.3148973833
 H         -2.1938589458       -2.6637489920       -0.1056977373
