  48
        -65.77910117
 Si         1.7402668110       -2.5945307077       -0.5502848339
 C          3.4025810368       -1.9438830575       -1.2010956667
 H          3.9339915029       -2.7254287694       -1.7321465352
 H          4.0429307178       -1.6021106317       -0.3937990068
 H          3.2654584668       -1.1115931636       -1.8845963798
 C          1.9355618365       -3.8660666244        0.8481332605
 H          0.9721049516       -4.0810182150        1.3019696979
 H          2.5917261092       -3.4964321226        1.6323532407
 H          2.3496880677       -4.8014828496        0.4858304744
 C          0.6118501367       -3.2209063843       -1.9477388013
 O         -1.7188177600        0.0346201643        3.0212587359
 H         -0.3808437597       -3.4402077529       -1.5651112868
 H          1.0018588226       -4.1285330506       -2.3968635754
 H          0.5053668489       -2.4820997285       -2.7382378178
 C         -1.6691855961        0.4289546757        1.8905017455
 C         -2.7615878453        1.1400022717        1.1238733078
 H         -3.3050757364        0.3857000912        0.5505091558
 H         -3.4630739020        1.6441376608        1.7871928090
 C         -0.4548437371        0.3720136497        0.9778441793
 C         -0.0825686097       -1.0432271778        0.6316708030
 O          1.1046696890       -1.1646927628        0.0757164928
 C          0.6723608137        1.4084219699        1.3256235268
 C         -0.7996492428        1.2430012757       -0.2915549693
 C         -1.9984078399        2.0872909142        0.1924414122
 C         -1.0373293754        0.4810002523       -1.5896626565
 O         -0.8405221025       -1.9690783327        0.7742419828
 C         -2.8320948302        2.7301758424       -0.9163118957
 C         -1.7395475548        1.3246163739       -2.6464375149
 H         -1.6554658942       -0.3946785387       -1.3717149543
 H         -0.0767538193        0.1240511858       -1.9666231692
 C         -3.0776688269        1.8060501798       -2.1014847119
 H         -2.2991452987        3.6137022832       -1.2762806168
 H         -3.7809788900        3.0662197946       -0.4927754289
 H         -1.8877150625        0.7273873894       -3.5479271927
 H         -1.1185719794        2.1843486176       -2.9063230673
 H         -3.6315333496        2.3453268435       -2.8720814809
 H         -3.6792871435        0.9471223884       -1.7977454366
 C          2.1720887838        1.1619774529        1.5005016503
 C          0.5415443779        1.8880684455       -0.0915977448
 H          0.2939307450        2.0935526691        2.0871085810
 C          1.7056568360        2.1434485047       -0.6588260839
 C          2.8010717110        2.0290297417        0.3787911308
 H          3.0858635914        3.0149134446        0.7580301630
 H          3.6919420323        1.5639613176       -0.0427571003
 H          2.4208102144        0.1160627100        1.3382344680
 H          2.5226731307        1.4526405745        2.4893282218
 H          1.9104134349        2.3821797485       -1.6870230514
 H         -1.6070561275        2.9016711750        0.8134792671
