  48
        -65.78218490
 Si         3.1637402580        0.4568004334       -0.1048193883
 C          3.6135785057        2.1428010134        0.6443676879
 H          3.3932674070        2.1635407732        1.7086121402
 H          3.0393014131        2.9368478821        0.1753613289
 H          4.6666984576        2.3726352363        0.5178301550
 C          4.0195545666       -0.9991112683        0.7613984336
 H          5.0973610034       -0.9011959396        0.6964253431
 H          3.7476609830       -1.9515993066        0.3165490718
 H          3.7507668794       -1.0393109299        1.8123502055
 C          3.4029906909        0.4237013920       -1.9944047764
 O          0.1680747690       -0.1091325826        2.7744316835
 H          4.4189922620        0.6891450273       -2.2677959910
 H          2.7343965081        1.1304519770       -2.4780696961
 H          3.1996651905       -0.5601555185       -2.4102160639
 C         -0.5703541574       -0.4231993052        1.8821969220
 C         -1.5680758166       -1.5653313322        1.9006100287
 H         -1.2353857741       -2.3708595163        2.5537921066
 H         -2.5142132207       -1.1823605237        2.2896181600
 C         -0.7443904983        0.3036152648        0.5633259550
 C          0.5167426454        0.8707998255       -0.0191635430
 O          1.5552249265        0.1022176643        0.2484416064
 C         -2.0085962253        1.2157343010        0.7501187729
 C         -1.5844773183       -0.6685918531       -0.3496293507
 C         -1.6939257608       -1.9841427925        0.4361744378
 C         -1.1991139858       -0.8468020572       -1.8171727860
 O          0.5847174189        1.8705023539       -0.6864534014
 C         -0.5383647690       -2.9363203498        0.1092231814
 C         -0.0528883109       -1.8240576413       -2.0459260646
 H         -0.9505838743        0.1312221324       -2.2345213238
 H         -2.0878419026       -1.2126041185       -2.3394926553
 C         -0.3757147251       -3.1581362438       -1.3877528938
 H         -0.7101937437       -3.8877287475        0.6177990033
 H          0.3874897579       -2.5065537755        0.5009594308
 H          0.8672631578       -1.4250761144       -1.6178405084
 H          0.1007687338       -1.9510496999       -3.1194668789
 H         -1.2974361371       -3.5673091564       -1.8084850555
 H          0.4266774454       -3.8752084604       -1.5702358916
 C         -2.2602456592        2.6164656682        0.1924710735
 C         -2.7091127480        0.3323558091       -0.2406450101
 H         -2.3708518429        1.1552025935        1.7795801615
 C         -3.5766172315        0.9984977958       -0.9854316793
 C         -3.6351799027        2.4303666048       -0.4965869900
 H         -4.4520425440        2.5774517202        0.2163141834
 H         -3.7791312982        3.1253701645       -1.3227510184
 H         -1.5038753347        2.8704545337       -0.5482229256
 H         -2.2739509202        3.3869990261        0.9609346807
 H         -4.1427319275        0.6521145243       -1.8310822872
 H         -2.6496056897       -2.4710125883        0.2221484521
