  48
        -65.77908039
 Si         2.5006795498        1.9744080249       -0.3754589495
 C          1.8231056208        3.7419996321       -0.5378716177
 H          2.5543068782        4.3844294764       -1.0152101760
 H          1.5905866554        4.1737261955        0.4307475270
 H          0.9169846491        3.7691845618       -1.1352400801
 C          3.9214969702        1.8384848714        0.8781391213
 H          4.1823048755        0.7971767230        1.0446415959
 H          3.6435891463        2.2635276426        1.8394533487
 H          4.8117065125        2.3549920301        0.5338214686
 C          2.9424020675        1.2140977177       -2.0626172762
 O          0.2470725869       -2.0237476635        2.7702380688
 H          3.1662482659        0.1564587489       -1.9569364191
 H          3.8118356534        1.6945823080       -2.4993779331
 H          2.1233910353        1.3096352912       -2.7712400021
 C         -0.2171675716       -1.8831146873        1.6741584469
 C         -0.8864516109       -2.9380606749        0.8238016691
 H         -0.1271389157       -3.3471843220        0.1535251582
 H         -1.2936545228       -3.7495278664        1.4254154548
 C         -0.3028975161       -0.5730770039        0.9051157206
 C          1.0651907906       -0.0812902602        0.5231300991
 O          1.1294447734        1.1987156037        0.2281202179
 C         -1.3954756961        0.4222841883        1.4317415903
 C         -1.2217421082       -0.8472950898       -0.3490926801
 C         -1.9433157489       -2.1567989646        0.0367650996
 C         -0.5256689511       -0.8770865228       -1.7039742797
 O          2.0058689285       -0.8285537076        0.4156009333
 C         -2.5884521595       -2.9122658508       -1.1254992228
 C         -1.3807967053       -1.5198556259       -2.7889095154
 H          0.4027953984       -1.4465819947       -1.6070112151
 H         -0.2607597356        0.1447651513       -1.9839800321
 C         -1.7250176890       -2.9457899769       -2.3794715950
 H         -3.5314086897       -2.4183601881       -1.3727781085
 H         -2.8230536689       -3.9273176214       -0.7978534445
 H         -0.8328689642       -1.5159325014       -3.7328251869
 H         -2.2992057347       -0.9453623771       -2.9261439502
 H         -2.2686576522       -3.4518127173       -3.1793549737
 H         -0.8056921620       -3.5050428847       -2.1951209894
 C         -1.2610777674        1.9105303735        1.7617936721
 C         -1.9529883031        0.4058054432        0.0371513353
 H         -2.0022118247       -0.0920084442        2.1803546656
 C         -2.3407450188        1.5971299369       -0.3779646490
 C         -2.2510085531        2.5773784312        0.7714512550
 H         -3.2305422501        2.7258857063        1.2355998514
 H         -1.8929155473        3.5490501760        0.4317373725
 H         -0.2528241997        2.2669383580        1.5676167559
 H         -1.5121512891        2.1246514421        2.7992029931
 H         -2.6636984418        1.8907784165       -1.3606638834
 H         -2.7454123164       -1.9038152584        0.7402071464
