  48
        -65.77883149
 Si         2.2937531452       -2.5008577224       -0.5213082979
 C          3.8437853442       -2.4049055428        0.5686186906
 H          4.4716172292       -3.2756204642        0.4160411301
 H          3.5788986110       -2.3645877580        1.6202485924
 H          4.4386526876       -1.5245186897        0.3458182056
 C          1.1688026251       -3.9727441091       -0.0987302999
 H          0.8198328591       -3.8999676063        0.9284011100
 H          1.6804879396       -4.9230256751       -0.2117057965
 H          0.2932416286       -3.9867781656       -0.7421303106
 C          2.7009184791       -2.4098180495       -2.3792100137
 O         -0.2683075912       -1.1377979657        2.3545480974
 H          1.7923824917       -2.3111456582       -2.9666696415
 H          3.2206019783       -3.3003483934       -2.7174808028
 H          3.3333532819       -1.5549795574       -2.6058024728
 C         -0.8258629440       -0.3190629370        1.6754964371
 C         -2.2207266077        0.2129503637        1.8805433430
 H         -2.9032850012       -0.5261524378        1.4559690946
 H         -2.4527310473        0.3061387489        2.9415597212
 C         -0.2371624109        0.3716851395        0.4570531110
 C          0.3200786292       -0.6975045802       -0.4451602762
 O          1.5094834762       -1.0894335734       -0.0473012403
 C          0.7316184281        1.5390260344        0.8571889927
 C         -1.2789706908        1.4303025489       -0.0374115292
 C         -2.3087436477        1.5352404986        1.1146684210
 C         -1.9405237013        1.2869277584       -1.4000648300
 O         -0.2722240793       -1.1855824736       -1.3737760130
 C         -3.7093072388        1.8564711213        0.6001217507
 C         -3.1104537309        0.3124123058       -1.3334632104
 H         -1.2067369632        0.9291919678       -2.1217070562
 H         -2.2844828188        2.2699243042       -1.7289480673
 C         -4.2259085647        0.8330070219       -0.4167449354
 H         -3.6762661738        2.8444379744        0.1371148053
 H         -4.4000345636        1.9171708398        1.4438476351
 H         -2.7274742789       -0.6447613222       -0.9781389839
 H         -3.5023394999        0.1465350626       -2.3375204058
 H         -5.0046091918        1.3116642182       -1.0134104718
 H         -4.6973096729       -0.0049104909        0.1002631587
 C          2.1239783590        1.8154248298        0.2888560923
 C         -0.1574109234        2.4284721621        0.0348171031
 H          0.7013941222        1.7083490772        1.9354313279
 C          0.5166698910        3.3356283056       -0.6489426068
 C          1.9772178512        3.2585080166       -0.2557858846
 H          2.2172118960        3.9939004672        0.5175838521
 H          2.6297900536        3.4434721087       -1.1085644441
 H          2.3476197031        1.1374648482       -0.5339444666
 H          2.9118499581        1.7240897149        1.0335857830
 H          0.1527977925        4.0235358378       -1.3902369495
 H         -1.9992603535        2.3446626810        1.7851242553
