  48
        -65.77874915
 Si         2.9507078573        1.7535138223        0.1226075879
 C          3.1255027556        2.9135041102        1.6131776190
 H          2.9583739066        2.3790853559        2.5428701029
 H          2.4124700970        3.7309668198        1.5720537605
 H          4.1202642644        3.3434428888        1.6487288409
 C          4.1572817723        0.2862768687        0.1748116927
 H          5.1923370085        0.6098623050        0.1331092411
 H          3.9834191552       -0.3855018074       -0.6612269455
 H          4.0230899842       -0.2858863439        1.0894085265
 C          3.0140460186        2.6777482566       -1.5415839374
 O          0.7314841034       -0.8237871553        2.3900950315
 H          4.0012098269        3.0848894030       -1.7341494707
 H          2.3085806314        3.5047978503       -1.5631380086
 H          2.7642058557        2.0105092947       -2.3618947599
 C         -0.0879488231       -1.0923950065        1.5543803596
 C         -0.9237978244       -2.3452257562        1.4945110260
 H         -0.2890152473       -3.1262284102        1.0709130171
 H         -1.2180990283       -2.6662743960        2.4938601487
 C         -0.4700762591       -0.2192217667        0.3724391239
 C          0.7950029105        0.2277408571       -0.3116948965
 O          1.3854346344        1.1868026019        0.3653856206
 C         -1.4680330730        0.9206900420        0.7850091540
 C         -1.6344190943       -0.9336408293       -0.3920205965
 C         -2.1091601111       -2.0490190592        0.5725658683
 C         -1.4332948729       -1.4393861948       -1.8126932262
 O          1.2465787341       -0.2616030605       -1.3154992994
 C         -2.6211708446       -3.2742836372       -0.1801061226
 C         -0.7244442447       -2.7884874748       -1.8067118814
 H         -0.8414731775       -0.7165338683       -2.3728635105
 H         -2.4080719823       -1.5254572828       -2.2974509120
 C         -1.5818241835       -3.8703242601       -1.1357339908
 H         -3.5052405287       -2.9740307181       -0.7455469984
 H         -2.9385459022       -4.0335452792        0.5378690878
 H          0.2255563116       -2.6645021352       -1.2854581969
 H         -0.4908709496       -3.0817549292       -2.8306973833
 H         -2.1117288487       -4.4485138909       -1.8949008184
 H         -0.9375484658       -4.5707326838       -0.6009455035
 C         -1.3710650292        2.4005395235        0.4127873690
 C         -2.3863585907        0.3614413929       -0.2644412991
 H         -1.7944632641        0.7892832131        1.8184363547
 C         -3.0256120306        1.3002934743       -0.9388171057
 C         -2.7151282330        2.6463157211       -0.3180011968
 H         -3.4949409417        2.9447238959        0.3886134256
 H         -2.6333879084        3.4249666442       -1.0758295350
 H         -0.5458378037        2.5725816939       -0.2774417611
 H         -1.2369951019        3.0475922876        1.2771496915
 H         -3.6534201041        1.1937498080       -1.8045892472
 H         -2.9314238892       -1.6560442901        1.1806402152
