  48
        -65.77840334
 Si         2.9729489475        1.7928784963        0.4375455503
 C          4.2402953138        0.4066283080        0.1549469417
 H          4.1294459672       -0.3689518841        0.9086463906
 H          5.2611545183        0.7725359560        0.1986554870
 H          4.0924383851       -0.0581828522       -0.8157624775
 C          2.9409361000        3.0515800263       -0.9916401062
 H          3.9033329615        3.5367133044       -1.1171912487
 H          2.2016391933        3.8296977382       -0.8181678055
 H          2.6905965424        2.5625218588       -1.9289677479
 C          3.1509664376        2.6245165765        2.1340765343
 O          1.0592768297       -1.5286390679        1.9524034914
 H          4.1135536448        3.1164168883        2.2180431186
 H          3.0778627109        1.8963048817        2.9354771935
 H          2.3813652100        3.3722219503        2.2983488202
 C          0.0618091005       -1.4847085061        1.2862633550
 C         -1.0516262993       -2.5066025744        1.2819491909
 H         -0.6457184517       -3.5099853426        1.4096924057
 H         -1.6838481416       -2.2985544973        2.1488918029
 C         -0.3399341399       -0.3643843389        0.3465823784
 C          0.8823849308        0.2771922755       -0.2494066513
 O          1.4376091240        1.1205080678        0.5927924372
 C         -1.3471600940        0.5738193101        1.1036698701
 C         -1.5144031062       -0.9066382989       -0.5324839699
 C         -1.8208231803       -2.3364001887       -0.0303796373
 C         -1.3995666147       -0.8485322025       -2.0535474500
 O          1.3351671553        0.0146907967       -1.3341452646
 C         -1.3733999374       -3.3644068482       -1.0684611466
 C         -2.4624016159       -1.7449000838       -2.6784855299
 H         -0.4065340620       -1.1705671064       -2.3642603787
 H         -1.5276342345        0.1831482997       -2.3842802953
 C         -2.1697425564       -3.2182058657       -2.3683559968
 H         -1.5066038264       -4.3724592855       -0.6704261836
 H         -0.3083565996       -3.2234871122       -1.2606856041
 H         -2.4954117809       -1.5891738676       -3.7572222989
 H         -3.4364255714       -1.4614731530       -2.2743507906
 H         -3.1101851095       -3.7668189561       -2.2885141194
 H         -1.5984334356       -3.6658943590       -3.1828166987
 C         -1.3792272423        2.1017031714        1.0704862662
 C         -2.3552003092        0.1958699803        0.0561913298
 H         -1.5479905635        0.2070094860        2.1120699622
 C         -3.1545634653        1.1994510840       -0.2637453397
 C         -2.8407401762        2.3770741626        0.6358664019
 H         -3.5062580796        2.4051436333        1.5034744393
 H         -2.9407635057        3.3226710589        0.1039942142
 H         -0.6961951392        2.4845041199        0.3122436330
 H         -1.1266538329        2.5572803602        2.0257298391
 H         -3.8931488124        1.2469243916       -1.0433821647
 H         -2.8968600534       -2.4477849043        0.1317371697
