  48
        -65.77790275
 Si         2.4990859836       -2.2081590312       -0.3729684300
 C          3.5127650359       -2.5349132689        1.1963803498
 H          4.0764149490       -1.6584527270        1.5003092212
 H          4.2180359877       -3.3426963407        1.0359181477
 H          2.8672683361       -2.8124353373        2.0234730668
 C          1.5027824275       -3.7230572004       -0.9430373916
 H          0.8812137261       -3.4763339598       -1.7992859625
 H          0.8458520912       -4.0700705000       -0.1495024244
 H          2.1476435363       -4.5489614972       -1.2258985983
 C          3.5459945263       -1.4687079322       -1.7826706137
 O         -0.5497449734       -1.3598778826        2.1133537419
 H          4.1030399819       -0.5971417857       -1.4474687500
 H          2.9136072144       -1.1581933685       -2.6098700110
 H          4.2628319053       -2.1874257344       -2.1659180665
 C         -0.9512057670       -0.3381043658        1.6272291314
 C         -2.1180419700        0.4823328809        2.1263755542
 H         -2.8807809812       -0.1666037790        2.5562909932
 H         -1.7449016748        1.1183378295        2.9327988370
 C         -0.3757462172        0.3850242448        0.4306509572
 C          0.4227975408       -0.5202541546       -0.4691690083
 O          1.4471923839       -1.0225898047        0.1862448473
 C          0.4530334640        1.6377830686        0.9094738643
 C         -1.4907814050        1.3504232676       -0.0978445535
 C         -2.6347622075        1.3175196162        0.9485246130
 C         -2.0110020546        1.2161914807       -1.5210630377
 O          0.1873246439       -0.7609978184       -1.6246752113
 C         -3.9086680691        0.7048060191        0.3572494900
 C         -2.8069528980       -0.0740113723       -1.7484570529
 H         -1.1707484497        1.2482280440       -2.2140803625
 H         -2.6369893292        2.0899001191       -1.7182328353
 C         -3.5553642994       -0.5128241052       -0.4869255419
 H         -4.4239291263        1.4388323612       -0.2645909246
 H         -4.5872899130        0.4306328110        1.1676524373
 H         -2.1245035786       -0.8624782691       -2.0617661877
 H         -3.5155245011        0.0956581061       -2.5613968251
 H         -4.4581617014       -1.0614335265       -0.7596144380
 H         -2.9291582278       -1.1857287383        0.1031809984
 C          1.8238800938        2.0640840603        0.3830024172
 C         -0.4955518030        2.4632391921        0.0901847471
 H          0.3901055557        1.7674278150        1.9906416834
 C          0.1036281712        3.4664561206       -0.5274408736
 C          1.5519545561        3.5154230054       -0.0864816493
 H          1.6943904646        4.2244239844        0.7342148022
 H          2.2073533742        3.8114610615       -0.9047318073
 H          2.1133721214        1.4562343221       -0.4745744618
 H          2.6099637955        2.0011506642        1.1330339739
 H         -0.3040332477        4.1450431508       -1.2541117895
 H         -2.8556450319        2.3383674181        1.2746773453
