  48
        -65.77788581
 Si         2.4559367855       -2.1927175493       -0.6462471696
 C          3.6319299229       -1.2317773685       -1.7967759240
 H          3.0764763937       -0.7336471592       -2.5866884508
 H          4.3560044886       -1.8897599365       -2.2658564585
 H          4.1853547361       -0.4709109775       -1.2517254254
 C          3.3335348305       -2.8808965528        0.8877585234
 H          4.0196327450       -3.6743640206        0.6132418103
 H          2.6167100708       -3.2865486210        1.5944301680
 H          3.9031977776       -2.1137335770        1.4026988896
 C          1.4589620994       -3.5108071270       -1.5850468103
 O         -0.7213324053       -1.7174073167        1.7727080203
 H          0.9117326007       -3.0650948162       -2.4110144966
 H          0.7335932907       -3.9829845633       -0.9273534218
 H          2.0974509570       -4.2896920039       -1.9895727305
 C         -1.0626388873       -0.6062496433        1.4721397684
 C         -2.2376669606        0.1471760980        2.0513607005
 H         -3.0431359653       -0.5425222915        2.3028215466
 H         -1.9009996039        0.6031075092        2.9856126436
 C         -0.3915580184        0.3111373417        0.4752702151
 C          0.4424582295       -0.4320858060       -0.5341236706
 O          1.4032523818       -1.0964044566        0.0714849492
 C          0.4347024440        1.4176398449        1.2361497275
 C         -1.4450100383        1.4006309010        0.0778232780
 C         -2.6553684231        1.2106897312        1.0284491191
 C         -1.8747349353        1.5596777393       -1.3727520604
 O          0.2830089935       -0.4294978898       -1.7271240769
 C         -3.9026518704        0.7694972128        0.2554453833
 C         -2.6842792460        0.3656373525       -1.8910646247
 H         -0.9908212162        1.6934793261       -1.9956948841
 H         -2.4659360111        2.4766061350       -1.4344152430
 C         -3.5252635600       -0.2772098989       -0.7848032074
 H         -4.3576717878        1.6271250806       -0.2429392239
 H         -4.6395220807        0.3711565672        0.9560168025
 H         -2.0014147714       -0.3731088671       -2.3076993242
 H         -3.3328800033        0.7118604840       -2.6980119457
 H         -4.4217175513       -0.7295323631       -1.2115985704
 H         -2.9566988314       -1.0732996416       -0.2988573393
 C          1.8478874199        1.8848023007        0.8856641429
 C         -0.4364197972        2.4190698252        0.5356604921
 H          0.3031349278        1.3405601728        2.3161513789
 C          0.2276439819        3.4979706107        0.1589589198
 C          1.6445165555        3.4079453505        0.6869142704
 H          1.7507790240        3.9431262075        1.6349675924
 H          2.3596590322        3.8285129250       -0.0190745927
 H          2.1792257540        1.4398771746       -0.0529449175
 H          2.5799654084        1.6518858907        1.6565581810
 H         -0.1138250561        4.3170076847       -0.4470894332
 H         -2.8717972524        2.1578131018        1.5318390278
