  48
        -65.78152101
 Si         3.0235312102       -1.2240171429       -0.0854161805
 C          3.0915768662       -1.3942974941       -1.9801223057
 H          2.3042222454       -2.0457049745       -2.3516915580
 H          4.0403896105       -1.8060268041       -2.3082065597
 H          2.9674985346       -0.4253987488       -2.4552602226
 C          4.3606500859       -0.0604951291        0.5949967062
 H          5.3590858202       -0.4498996375        0.4239087551
 H          4.2386394024        0.0852266637        1.6653548102
 H          4.2968006417        0.9156529698        0.1226435199
 C          2.9956765008       -2.9104944168        0.7878006323
 O          0.2364802744        0.4316768005        2.9262242055
 H          2.8080576203       -2.8000975382        1.8512535895
 H          3.9495060511       -3.4120401265        0.6698865800
 H          2.2290488966       -3.5649712644        0.3841674926
 C         -0.4150048032        0.1106443509        1.9709630570
 C         -1.4776239878       -0.9636527733        1.9170413048
 H         -0.9915894300       -1.8902124964        1.6027471362
 H         -1.9393227610       -1.1266372479        2.8901242033
 C         -0.3452358191        0.7441893260        0.5910793711
 C          1.0229668809        0.5411500421        0.0028050654
 O          1.5018697459       -0.6417552204        0.3544029847
 C         -1.0391627482        2.1414133840        0.4404257646
 C         -1.5213072081        0.1131482246       -0.2476533732
 C         -2.4480826321       -0.4660821150        0.8426980112
 C         -1.1239689153       -0.8747490067       -1.3360610325
 O          1.6154333072        1.2998139061       -0.7166827019
 C         -3.4710341935       -1.4897697901        0.3492083544
 C         -2.3065034785       -1.6951323155       -1.8360369313
 H         -0.3733978652       -1.5583396855       -0.9304984055
 H         -0.6624992978       -0.3237556423       -2.1586117515
 C         -2.9059360691       -2.4706024991       -0.6699618450
 H         -4.2957033429       -0.9478289679       -0.1200498283
 H         -3.8760029121       -2.0267530739        1.2098040393
 H         -1.9710193511       -2.3797073399       -2.6171407760
 H         -3.0619290166       -1.0339883111       -2.2650339573
 H         -3.7043057101       -3.1280655004       -1.0190324739
 H         -2.1361109343       -3.0953524357       -0.2121518533
 C         -0.4711767794        3.4035471373       -0.2099314063
 C         -1.8553237156        1.5182973801       -0.6579789623
 H         -1.5862348152        2.3750827632        1.3564429140
 C         -2.0434834921        2.3269269089       -1.6839765418
 C         -1.4930760199        3.6937632063       -1.3386490835
 H         -2.2879181726        4.3591146310       -0.9880567354
 H         -1.0232037511        4.1604611803       -2.2037108308
 H          0.5051398558        3.1994337372       -0.6438171904
 H         -0.3796084559        4.2314892239        0.4904001393
 H         -2.4867594739        2.1060356802       -2.6383110630
 H         -3.0115877236        0.3664089857        1.2803774334
