  48
        -65.77767413
 Si         2.4551855281       -0.8194423105       -1.9798956743
 C          2.3601751742        0.8262454825       -2.9300114750
 H          1.3804540953        0.9480426541       -3.3829654793
 H          3.0999690040        0.8704736475       -3.7227024314
 H          2.5299218901        1.6772961692       -2.2748327309
 C          4.0279998110       -0.9448396870       -0.9212584431
 H          4.0763126963       -1.8867719124       -0.3836384346
 H          4.0831531996       -0.1453506892       -0.1887028846
 H          4.9101459831       -0.8803051117       -1.5480911278
 C          2.1944759526       -2.3291253139       -3.1024633518
 O         -2.5317968127       -2.3094047079       -0.2275712182
 H          2.2298603806       -3.2548466260       -2.5335123659
 H          2.9510713240       -2.3887404402       -3.8781815012
 H          1.2229078591       -2.2796813825       -3.5858904316
 C         -2.2548703175       -1.1659334827        0.0034342373
 C         -3.2182360408       -0.0126544775        0.1470179466
 H         -3.3384718882        0.4098689383       -0.8548579090
 H         -4.1960673090       -0.3403543430        0.4971815875
 C         -0.8557068306       -0.6307445524        0.2605128012
 C         -0.0064080517       -0.7232345310       -0.9757141225
 O          1.2874426413       -0.8179977090       -0.7601111045
 C         -0.3215427538       -1.0349788537        1.6779323384
 C         -1.0195738467        0.8462527981        0.7817404756
 C         -2.5309019377        0.9959085724        1.0701876074
 C         -0.4899588793        1.9821335961       -0.0770854478
 O         -0.4846071642       -0.6350250599       -2.0794546047
 C         -3.0016825378        2.4378366763        0.8817882027
 C         -0.6685962165        3.3358368985        0.6217534982
 H         -1.0238481184        1.9728678612       -1.0296789207
 H          0.5671006734        1.8164644260       -0.2924390529
 C         -1.9523208759        3.3819226879        1.4595913825
 H         -3.9598674818        2.5791472907        1.3846290963
 H         -3.1469998561        2.6582320452       -0.1770284933
 H         -0.6908598219        4.1191036784       -0.1379071274
 H          0.1880996034        3.5300046485        1.2675428799
 H         -1.7361668939        3.0728093015        2.4842488195
 H         -2.3370379078        4.4019810243        1.4949168363
 C          1.0329024422       -1.6275798045        2.0720475329
 C         -0.1627849857        0.4334503899        1.9441041894
 H         -1.1336371183       -1.5151587091        2.2297912000
 C          0.9268898357        0.7166021337        2.6336267181
 C          1.5859200723       -0.5754657099        3.0673964621
 H          1.3126897235       -0.8272137652        4.0965457147
 H          2.6721602313       -0.5006980629        3.0197312707
 H          1.6926061929       -1.6978387798        1.2109902632
 H          0.9391233096       -2.6137828122        2.5230871425
 H          1.3402989263        1.6803622960        2.8708274701
 H         -2.7134156761        0.7048212191        2.1102056677
