  48
        -65.77766824
 Si         1.6483823709       -2.6839066836       -0.2473121004
 C          0.1174614151       -3.7122429910       -0.7157833076
 H         -0.3198135165       -3.3771274400       -1.6533139151
 H         -0.6457804445       -3.6300820973        0.0528439634
 H          0.3641984002       -4.7630943143       -0.8270871194
 C          2.8679078386       -2.5089112676       -1.6935673002
 H          3.7474240130       -1.9389776816       -1.4103601474
 H          2.4128978295       -2.0086251016       -2.5429530785
 H          3.2032903689       -3.4853360879       -2.0242058272
 C          2.4747468433       -3.2920592836        1.3511124574
 O         -0.1370929857        1.3907010823        3.0569569190
 H          1.7752468085       -3.2483813755        2.1810964061
 H          3.3315464585       -2.6759765922        1.6126799584
 H          2.8205929826       -4.3165805029        1.2592348535
 C         -0.6639470420        1.3470474884        1.9800798350
 C         -2.0374844721        1.8628231748        1.6314589781
 H         -2.7398007425        1.0668203077        1.8861841891
 H         -2.2970088630        2.7376906165        2.2271529031
 C         -0.0258290655        0.8150596123        0.7099572575
 C          0.3108259708       -0.6449932883        0.8195249929
 O          1.1890904064       -1.0700147493       -0.0653649513
 C          1.0129987169        1.8423788451        0.1337099290
 C         -0.9878048790        1.1721589750       -0.4873693002
 C         -2.0391018982        2.1291557967        0.1226665694
 C         -1.6232071831        0.0476127923       -1.2930347936
 O         -0.2375780607       -1.3781011913        1.6033566180
 C         -3.4107083873        1.9514993346       -0.5248815070
 C         -2.8251219429       -0.5277898825       -0.5525984993
 H         -0.8803970656       -0.7293287850       -1.4790721008
 H         -1.9333864737        0.4418151948       -2.2636140562
 C         -3.9431968197        0.5170438818       -0.4252894446
 H         -3.3265956494        2.2373839832       -1.5751435901
 H         -4.1204858431        2.6380340283       -0.0590997218
 H         -2.4953018115       -0.8598126867        0.4331783369
 H         -3.1980494023       -1.4066264990       -1.0810367310
 H         -4.6783100883        0.3722859323       -1.2191624461
 H         -4.4689245376        0.3761699115        0.5204102876
 C          2.4458171175        1.5965141258       -0.3419788961
 C          0.2046194619        1.8226723028       -1.1286513192
 H          0.9435037815        2.7679552693        0.7103443358
 C          0.9502465393        1.8496957935       -2.2181753851
 C          2.3963059479        2.0572693364       -1.8215102543
 H          2.6810662092        3.1095230768       -1.9144590251
 H          3.0655910325        1.4730842711       -2.4526027905
 H          2.6950351784        0.5389756581       -0.2979062146
 H          3.1777626916        2.1532020557        0.2404388655
 H          0.6451779479        1.7328097023       -3.2423669031
 H         -1.7117284302        3.1605779692       -0.0483189623
