  48
        -65.77764081
 Si         2.5227004259        1.7379179882       -0.7225966193
 C          1.9030006075        3.3203352019       -1.5719803954
 H          2.7095968009        3.7950414242       -2.1190061879
 H          1.5261345369        4.0407578726       -0.8526713737
 H          1.1027924437        3.1110039755       -2.2752378211
 C          3.7342345174        2.0838867602        0.6989795590
 H          4.6752215730        2.4842488096        0.3358332480
 H          3.9487661851        1.1704100363        1.2464456487
 H          3.3212618389        2.7997082038        1.4055268695
 C          3.1991403844        0.4695088705       -1.9689514089
 O         -0.1267605670       -1.2983582889        3.1103723396
 H          4.1404653670        0.7971777023       -2.3980113946
 H          2.5049425294        0.3031497437       -2.7892439253
 H          3.3705564472       -0.4866857739       -1.4828766325
 C         -0.5487589643       -1.3967877597        1.9917509391
 C         -1.2969245279       -2.5727200164        1.4155013251
 H         -0.5412292334       -3.2841525128        1.0770731928
 H         -1.9030919454       -3.0683803553        2.1734528905
 C         -0.4767575843       -0.3190088237        0.9261537199
 C          0.9400914004        0.0313822717        0.5700463404
 O          1.0675151230        1.1664800143       -0.0871150013
 C         -1.5334042546        0.8100597990        1.2025354276
 C         -1.3592258665       -0.7956869067       -0.2905767364
 C         -2.1135745307       -2.0407515233        0.2332307103
 C         -0.6981605800       -1.0424613567       -1.6393391611
 O          1.8686616700       -0.7013641781        0.7993909632
 C         -2.3324208922       -3.0761459383       -0.8679385420
 C         -0.0050804608       -2.4000559704       -1.6527199167
 H          0.0167100470       -0.2445537542       -1.8442026559
 H         -1.4628534586       -1.0032540756       -2.4185934870
 C         -1.0281326294       -3.5384569310       -1.5285875033
 H         -2.9861806510       -2.6331767900       -1.6217329210
 H         -2.8571134661       -3.9385640762       -0.4520227570
 H          0.7068137186       -2.4312069737       -0.8261139075
 H          0.5664251508       -2.5146547778       -2.5751699562
 H         -1.2695032413       -3.9295735346       -2.5187087640
 H         -0.5912519295       -4.3624579361       -0.9622587939
 C         -1.3364543668        2.3267442728        1.2034782874
 C         -2.0785348548        0.5168905216       -0.1627888764
 H         -2.1716321358        0.4950533389        2.0315470827
 C         -2.4377576347        1.6056536123       -0.8181256324
 C         -2.3264218367        2.7982978681        0.1074434407
 H         -3.2989662483        3.0513335049        0.5399847604
 H         -1.9583839973        3.6757260682       -0.4236958708
 H         -0.3211709525        2.5878821750        0.9139601458
 H         -1.5493386499        2.7726297869        2.1733928320
 H         -2.7497024930        1.6991581514       -1.8426120917
 H         -3.0945875435       -1.7233215990        0.6034039871
