  48
        -65.77762415
 Si         2.5558506152        1.7037733980       -0.6762931097
 C          3.2526382085        0.4269770591       -1.9026464097
 H          4.2094091000        0.7438170847       -2.3048797218
 H          2.5801796643        0.2679836681       -2.7422205884
 H          3.3994742589       -0.5306851514       -1.4115815033
 C          1.9590212146        3.2839239893       -1.5461409518
 H          1.1779136059        3.0723905413       -2.2698865374
 H          2.7796949196        3.7574506003       -2.0728229307
 H          1.5626852402        4.0060507120       -0.8391790712
 C          3.7407629215        2.0518233436        0.7671420957
 O         -0.1896930777       -1.3395333987        3.0937724265
 H          3.9402817511        1.1403039055        1.3235038929
 H          3.3178006969        2.7734906042        1.4617145664
 H          4.6905866690        2.4456705387        0.4202340940
 C         -0.5968540844       -1.4156101062        1.9679671708
 C         -1.3564399631       -2.5706847849        1.3650056458
 H         -0.6081718825       -3.2894559018        1.0256021700
 H         -1.9803679022       -3.0672680978        2.1077733210
 C         -0.4918199101       -0.3249219048        0.9184622331
 C          0.9352139728        0.0080469362        0.5869347461
 O          1.0862563681        1.1432279139       -0.0654371070
 C         -1.5318893467        0.8189341287        1.1979009016
 C         -1.3672288556       -0.7685556600       -0.3157570526
 C         -2.1489451703       -2.0080410582        0.1804948364
 C         -0.6943745023       -1.0069793808       -1.6601700619
 O          1.8513567522       -0.7356252933        0.8301011332
 C         -2.3710663781       -3.0239269360       -0.9380775152
 C         -0.0233826114       -2.3754125724       -1.6850701600
 H          0.0356004890       -0.2180633363       -1.8454858356
 H         -1.4492383893       -0.9442416212       -2.4474143775
 C         -1.0663678773       -3.4984099208       -1.5892092403
 H         -3.0080127450       -2.5596111263       -1.6934013553
 H         -2.9149643399       -3.8833262814       -0.5410084576
 H          0.6780613609       -2.4300945992       -0.8507340852
 H          0.5570767976       -2.4863131096       -2.6023736402
 H         -1.3017853947       -3.8718590865       -2.5875458385
 H         -0.6500308997       -4.3371951663       -1.0291549919
 C         -1.3078671189        2.3315909931        1.2220264977
 C         -2.0655909038        0.5542663346       -0.1776724762
 H         -2.1854255424        0.5042047184        2.0149870045
 C         -2.3983972696        1.6580913621       -0.8216415660
 C         -2.2769901701        2.8356336420        0.1218324077
 H         -3.2497840434        3.0996634454        0.5471438106
 H         -1.8877666759        3.7137200640       -0.3928474528
 H         -0.2849131240        2.5782809447        0.9470731384
 H         -1.5234021017        2.7681030761        2.1956133578
 H         -2.6965980619        1.7712651246       -1.8482209693
 H         -3.1291456919       -1.6793904432        0.5429436742
