  48
        -65.77758509
 Si         2.5551110265        1.6924531580       -0.6878095394
 C          3.3053012336        0.3808031093       -1.8436055860
 H          4.2577873402        0.7066764248       -2.2488272551
 H          2.6489423523        0.1621839123       -2.6825386253
 H          3.4731793085       -0.5478836583       -1.3058311404
 C          1.9496999885        3.2238755305       -1.6355120446
 H          1.5342664493        3.9712492561       -0.9667478321
 H          1.1811169944        2.9696281777       -2.3590448814
 H          2.7711178352        3.6847768011       -2.1722323311
 C          3.6977776277        2.1211831200        0.7680545822
 O         -0.2100882867       -1.3190997032        3.1058070691
 H          3.9016556854        1.2363783167        1.3645746041
 H          3.2440559896        2.8606199528        1.4234445342
 H          4.6478308048        2.5205956075        0.4282528652
 C         -0.6083219818       -1.4026402023        1.9773625049
 C         -1.3639951702       -2.5614604474        1.3765036845
 H         -0.6138466983       -3.2824375538        1.0460607264
 H         -1.9927038641       -3.0535147644        2.1182447385
 C         -0.4951823330       -0.3194076881        0.9211699148
 C          0.9339394991        0.0154670065        0.6004603172
 O          1.0821834781        1.1309977436       -0.0862546321
 C         -1.5348631813        0.8281961010        1.1878698350
 C         -1.3645694886       -0.7689542428       -0.3150042975
 C         -2.1491065478       -2.0057411206        0.1838075338
 C         -0.6856835704       -1.0150261431       -1.6549431318
 O          1.8544376052       -0.7087899106        0.8817140180
 C         -2.3639987451       -3.0285896313       -0.9298517687
 C         -0.0126909286       -2.3825609618       -1.6671450112
 H          0.0434920377       -0.2260567408       -1.8426783020
 H         -1.4373808977       -0.9590220840       -2.4456774407
 C         -1.0551700737       -3.5059881732       -1.5705612043
 H         -2.9970474637       -2.5695632431       -1.6916472220
 H         -2.9094019532       -3.8860099459       -0.5305985220
 H          0.6836365141       -2.4310821221       -0.8280377828
 H          0.5736330549       -2.4989111826       -2.5800344017
 H         -1.2844690552       -3.8854456857       -2.5680521126
 H         -0.6413958226       -4.3411126795       -1.0031956555
 C         -1.3069574140        2.3402717175        1.2010292245
 C         -2.0633067781        0.5548171853       -0.1880210475
 H         -2.1922570710        0.5213344570        2.0048052573
 C         -2.3937581312        1.6546709812       -0.8399951079
 C         -2.2747616368        2.8378673178        0.0968128912
 H         -3.2483129020        3.1033066131        0.5195258654
 H         -1.8855616097        3.7134337428       -0.4221147648
 H         -0.2834268959        2.5821304115        0.9234759280
 H         -1.5208476225        2.7850354825        2.1712359342
 H         -2.6883771562        1.7617261931       -1.8682431466
 H         -3.1315905590       -1.6751936433        0.5382285099
