  48
        -65.77757267
 Si         2.3678943286       -1.6189856306        1.4214690676
 C          2.4092178458       -1.6786943862        3.3199557627
 H          3.1478616042       -2.3856103934        3.6836809504
 H          1.4406137530       -1.9767673817        3.7114821359
 H          2.6474631319       -0.7054511304        3.7420449907
 C          1.9302655601       -3.3013024611        0.6491173994
 H          2.6387871915       -4.0692461580        0.9422361262
 H          1.9258698022       -3.2555867817       -0.4372367214
 H          0.9428043935       -3.6203616180        0.9699330724
 C          3.9417017200       -0.8689550582        0.6657180568
 O         -2.5380516478        0.9496193876        2.2061812365
 H          4.7849625239       -1.5345077692        0.8113591889
 H          4.1924270470        0.0829836777        1.1233344250
 H          3.8323660509       -0.7001775591       -0.4012346998
 C         -2.2588541061        0.6508901700        1.0792319733
 C         -3.2252908615        0.3630609205       -0.0457153417
 H         -3.4296113254       -0.7109144240       -0.0095566832
 H         -4.1686275818        0.8916633074        0.0841023054
 C         -0.8546857358        0.5587840457        0.5090314568
 C         -0.0573679889       -0.5448815398        1.1452187745
 O          1.2399669095       -0.4645872017        0.9307972661
 C         -0.2197632366        1.9756249478        0.2770572693
 C         -0.9965875569        0.4101360436       -1.0520503097
 C         -2.4841610096        0.7216389540       -1.3360238424
 C         -0.5536969681       -0.8864565246       -1.7083936840
 O         -0.5722123310       -1.4644386484        1.7287244779
 C         -2.9903843487       -0.0179872180       -2.5742425306
 C         -0.6993770762       -0.8123253795       -3.2337950986
 H         -1.1602239072       -1.7020803838       -1.3082665695
 H          0.4861615445       -1.0916270235       -1.4502798481
 C         -1.9131082746        0.0260746842       -3.6529875856
 H         -3.9080007880        0.4518925319       -2.9321333957
 H         -3.2223428450       -1.0566540779       -2.3327410537
 H         -0.7947812807       -1.8272115805       -3.6238099622
 H          0.2024367344       -0.3785402774       -3.6664096794
 H         -1.6118085204        1.0654176628       -3.7983110507
 H         -2.3089938106       -0.3403671739       -4.6010060114
 C          1.1634087951        2.4842424779        0.6855918981
 C         -0.0483422172        1.5701303424       -1.1572116848
 H         -0.9867603992        2.7333676846        0.4539759146
 C          1.0954620516        1.9799992114       -1.6737182769
 C          1.7975943599        2.8743599007       -0.6743892951
 H          1.6206214002        3.9300042266       -0.9010790296
 H          2.8743287222        2.7066263614       -0.6847874750
 H          1.7491492467        1.6929108395        1.1474833635
 H          1.1094088894        3.3261837707        1.3734546898
 H          1.5234563253        1.7421850007       -2.6308462827
 H         -2.5826656364        1.7981643165       -1.5118252576
