  48
        -65.77756084
 Si         2.0771712901        1.4931126752        1.9184369243
 C          1.4191741176        1.1133506983        3.6601531209
 H          0.3365990819        1.1840911030        3.7033859301
 H          1.8262969092        1.8150062596        4.3793274867
 H          1.6947077401        0.1146232072        3.9843180927
 C          3.9273232780        1.1087296395        1.7213810320
 H          4.5424138152        1.7797487946        2.3121550371
 H          4.2272210295        1.2088885417        0.6819733093
 H          4.1559630578        0.0919671318        2.0313497321
 C          1.6341436853        3.2534335202        1.3500334285
 O          1.5279217565       -1.6858412765       -2.6570326173
 H          2.1899435916        4.0018294055        1.9055952550
 H          0.5757565278        3.4640745354        1.4831770375
 H          1.8660148353        3.3813688328        0.2966184085
 C          0.5466779841       -1.1133725605       -2.2740874426
 C         -0.6352445852       -0.6854911889       -3.1124257602
 H         -0.4110923437        0.3237015098       -3.4698378666
 H         -0.7715842169       -1.3292427493       -3.9802805258
 C          0.2406015224       -0.7458114560       -0.8332980375
 C          1.2135343740        0.2594939747       -0.2841409230
 O          1.1844772619        0.3727803793        1.0282132305
 C         -0.1787322088       -1.9972426680        0.0172389325
 C         -1.2567608486       -0.2614214413       -0.7851751911
 C         -1.8350925741       -0.6606285604       -2.1624240229
 C         -1.5473842518        1.1910696108       -0.4477528832
 O          1.8977690871        0.9555555472       -0.9898932147
 C         -2.9588515595        0.2796006764       -2.5979376206
 C         -3.0576517122        1.4519937121       -0.3780414537
 H         -1.0879894199        1.8224388287       -1.2116972687
 H         -1.0884008766        1.4442589547        0.5088854475
 C         -3.8330634452        0.5997618173       -1.3898804642
 H         -3.5507397971       -0.1952699452       -3.3821884095
 H         -2.5486591004        1.2046912377       -3.0065065528
 H         -3.2367094668        2.5116005044       -0.5688418611
 H         -3.4205158337        1.2341223372        0.6266798803
 H         -4.1377529332       -0.3399317503       -0.9248281846
 H         -4.7370985801        1.1239270614       -1.7024822075
 C          0.3332805211       -2.4372543956        1.3894276976
 C         -1.4477378941       -1.2574652782        0.3225694308
 H         -0.2923684923       -2.8515540253       -0.6542530647
 C         -1.8445311852       -1.4121657300        1.5722159922
 C         -0.9553371554       -2.4315287952        2.2516771424
 H         -1.4261883925       -3.4191064142        2.2595629848
 H         -0.7527536904       -2.1500446243        3.2847898220
 H          1.0434931300       -1.7177494693        1.7901286450
 H          0.8071101882       -3.4168554913        1.3605597394
 H         -2.6465370880       -0.9157928554        2.0881803754
 H         -2.2432517432       -1.6738660410       -2.0833398911
