  48
        -65.77713326
 Si         2.0321527810       -2.6094112832       -0.3551354336
 C          3.8822389730       -2.1909294210       -0.2545096576
 H          4.1501378779       -1.3771513174       -0.9214061572
 H          4.4771818751       -3.0530708648       -0.5337200319
 H          4.1722443293       -1.9015446522        0.7507392649
 C          1.5212724187       -3.9773230386        0.8585900940
 H          0.4444368411       -4.1187059984        0.8440121161
 H          1.8032536113       -3.7223246097        1.8770601820
 H          1.9867409202       -4.9264725314        0.6131293380
 C          1.4688154712       -2.9528225058       -2.1402322900
 O         -1.1450021225       -0.2156307212        2.9058183584
 H          0.3881649252       -3.0531187669       -2.1876156045
 H          1.9046578866       -3.8686058683       -2.5260621100
 H          1.7553412802       -2.1448185964       -2.8092908131
 C         -1.3494444077        0.3007300853        1.8422263228
 C         -2.6305342947        0.9469967850        1.3852314555
 H         -3.2376310988        0.1501588571        0.9508956570
 H         -3.1833177161        1.3760397109        2.2205209629
 C         -0.3220406863        0.4496648195        0.7271650743
 C          0.0800546295       -0.9207420191        0.2518873064
 O          1.3701995702       -1.1358159660        0.1449656463
 C          0.7216534857        1.5692611933        1.0664923530
 C         -0.9582596156        1.4064756436       -0.3493775858
 C         -2.2354959860        1.9690810645        0.3165555267
 C         -1.2093644319        0.8926063736       -1.7611787274
 O         -0.7473088777       -1.7585693883       -0.0163983030
 C         -3.3303678281        2.2570861209       -0.7067439182
 C         -2.5238438501        0.1240202458       -1.8444799562
 H         -0.3808632800        0.2484542227       -2.0628752734
 H         -1.2285727202        1.7455574465       -2.4438856156
 C         -3.7249873487        1.0274928697       -1.5316905938
 H         -2.9653878272        3.0411600293       -1.3732082709
 H         -4.2098658606        2.6516793032       -0.1938392111
 H         -2.4737483471       -0.7088393951       -1.1429938137
 H         -2.6318847166       -0.3016623524       -2.8433504026
 H         -4.1814762287        1.3752929218       -2.4603657908
 H         -4.4861540681        0.4513709160       -1.0029957076
 C          2.2477270595        1.5622612414        0.9405128338
 C          0.2728347333        2.2519908492       -0.1921845578
 H          0.4148785843        2.0676841030        1.9900361394
 C          1.2570414927        2.8544403485       -0.8337584344
 C          2.5107231729        2.7744093241        0.0114994759
 H          2.6488736105        3.6910555785        0.5926138549
 H          3.3984341602        2.6326775177       -0.6045719758
 H          2.5947731614        0.6519284170        0.4589261398
 H          2.7466072872        1.6606760688        1.9027731085
 H          1.2401088730        3.3265127154       -1.7994797104
 H         -1.9812338054        2.9103337682        0.8169716986
