  48
        -65.77665001
 Si         1.9624045091       -2.3327887181       -0.5181618415
 C          2.9420488024       -2.8313515174        1.0315474295
 H          2.2712231498       -2.9759023403        1.8737357805
 H          3.6591837564       -2.0638158174        1.3123271103
 H          3.4905920307       -3.7553005395        0.8797477806
 C          0.7083037205       -3.6634205557       -1.0418783793
 H          0.1367730481       -3.3547436212       -1.9139778403
 H          0.0054739262       -3.8651942908       -0.2383826765
 H          1.2039198022       -4.5968732231       -1.2884653323
 C          3.0821523179       -1.8030018159       -1.9595933491
 O         -0.8510443393        0.6846491616        3.1160794621
 H          2.5098769418       -1.3771792584       -2.7780577633
 H          3.6264645655       -2.6571365058       -2.3460533346
 H          3.8127241846       -1.0616147842       -1.6509968834
 C         -1.1029382201        1.0217214187        1.9930783692
 C         -2.2298734846        1.9454782923        1.5804291482
 H         -3.1284043892        1.7188094699        2.1537915630
 H         -1.9294891921        2.9619131514        1.8461522612
 C         -0.2893507707        0.7025005206        0.7584799721
 C          0.2561632421       -0.6973309265        0.7193007032
 O          1.1644404877       -0.8778659624       -0.2251144619
 C          0.6830129165        1.9196507280        0.5084541192
 C         -1.1367998916        1.1618738792       -0.4856937178
 C         -2.4325360512        1.7986363287        0.0682909945
 C         -1.4207526748        0.1566233172       -1.5935877101
 O         -0.1216351860       -1.5837308585        1.4383460777
 C         -3.6493681291        0.9189082881       -0.2430613490
 C         -2.3086898027       -1.0015645457       -1.1246571614
 H         -0.4761100045       -0.2281997368       -1.9808428807
 H         -1.9067050775        0.7012146784       -2.4068898961
 C         -3.2963557660       -0.5499380462       -0.0446121027
 H         -3.9743490148        1.0771167732       -1.2732195545
 H         -4.4781812728        1.2061154921        0.4065934878
 H         -1.6918550189       -1.8075942146       -0.7286176573
 H         -2.8506210049       -1.3964724236       -1.9867527130
 H         -4.1959566918       -1.1658153747       -0.0816839756
 H         -2.8474476277       -0.6827671920        0.9419165253
 C          2.1660089711        1.9066902180        0.1355817879
 C         -0.0081202580        2.1023794594       -0.8081059871
 H          0.4843985457        2.6974713000        1.2490375223
 C          0.8142100515        2.4812989413       -1.7703975173
 C          2.1807375004        2.7397638970       -1.1715546734
 H          2.3226697756        3.8030621680       -0.9565698842
 H          2.9751526024        2.4252165408       -1.8475835058
 H          2.5046290807        0.8950779595       -0.0772190537
 H          2.7991033117        2.3343749049        0.9111491711
 H          0.6153051176        2.5831613945       -2.8217775757
 H         -2.5789482229        2.7801556082       -0.3929796870
