  48
        -65.77593244
 Si         2.0490795608       -2.4278592120       -0.5396781776
 C          1.0540902572       -3.0590635112       -2.0330241994
 H          0.9371308917       -2.2872474266       -2.7898734189
 H          0.0608791326       -3.3713434586       -1.7238216622
 H          1.5380550064       -3.9095516677       -2.5022131806
 C          3.7136965171       -1.6747337131       -1.0627186942
 H          4.2747145576       -1.3070907434       -0.2091406254
 H          3.5812491983       -0.8452704617       -1.7506831317
 H          4.3242112704       -2.4206668122       -1.5587393777
 C          2.2253170232       -3.7332417892        0.8289467809
 O         -1.5628753121       -0.3840111659        2.9580337617
 H          2.7339526824       -4.6232005999        0.4726452211
 H          1.2477191251       -4.0315903162        1.1969573830
 H          2.7889574945       -3.3459013518        1.6740882811
 C         -1.5482891485        0.2895215741        1.9661178286
 C         -2.5774176541        1.3354734610        1.5903523967
 H         -3.5790588471        0.9662507409        1.8099123605
 H         -2.4079130887        2.2050070054        2.2300654890
 C         -0.4428527394        0.3241203407        0.9321162621
 C          0.0576830531       -1.0358623683        0.5384680331
 O          1.2982962942       -1.0559010781        0.0941483065
 C          0.5274432688        1.5050483295        1.3044650504
 C         -0.9741226629        1.1750895477       -0.2793708829
 C         -2.3847024999        1.6721564441        0.1085067258
 C         -0.9469329840        0.5386066103       -1.6665306001
 O         -0.6514065796       -2.0091743609        0.5467681294
 C         -3.4436420703        0.9837805646       -0.7520727510
 C         -1.7828598120        1.3808010217       -2.6237394093
 H         -1.3445370630       -0.4768676821       -1.6213489616
 H          0.0864810305        0.4783000581       -2.0130551209
 C         -3.2661523995        1.3220438550       -2.2349630339
 H         -4.4381987376        1.2949255548       -0.4264151634
 H         -3.3697035110       -0.0941167631       -0.5979657286
 H         -1.6487119665        1.0298248730       -3.6476220508
 H         -1.4222410533        2.4102113590       -2.5778706973
 H         -3.7360334228        2.2831781300       -2.4515030751
 H         -3.7803412487        0.5662165902       -2.8305848823
 C          2.0567890800        1.5446068221        1.3112018217
 C          0.1688575307        2.1170550206       -0.0163939610
 H          0.1323095529        2.0313359965        2.1768155039
 C          1.1835781027        2.7462292188       -0.5821532254
 C          2.3541990935        2.7463069004        0.3785368497
 H          2.3977267808        3.6809144407        0.9457399146
 H          3.3006075961        2.6300109439       -0.1487501070
 H          2.4700641788        0.6369729442        0.8780059001
 H          2.4697328418        1.6790642790        2.3094246569
 H          1.2414251841        3.1834432555       -1.5627340452
 H         -2.4473346205        2.7521220176       -0.0562490794
