  48
        -65.77545897
 Si         2.3180382776       -1.3359118165        1.7429525925
 C          1.7238652010       -2.8728441490        2.6833443900
 H          1.1381001918       -2.5932376401        3.5542147569
 H          2.5566342695       -3.4821668292        3.0209721988
 H          1.0860356572       -3.4929625413        2.0599661702
 C          3.2640856357       -1.7865390882        0.1514906910
 H          2.7500497531       -2.5509554498       -0.4251975208
 H          4.2527595753       -2.1665606511        0.3854947989
 H          3.3869333809       -0.9180986567       -0.4898948521
 C          3.3278256210       -0.1654102082        2.8533696267
 O         -2.7730995932        1.1811286417        1.8569220968
 H          3.6930621273        0.6946448970        2.2989882246
 H          4.1912259113       -0.6765176793        3.2660811816
 H          2.7372445089        0.2073483771        3.6857852880
 C         -2.3934567677        0.7562540835        0.8021110769
 C         -3.2536798065        0.3578442171       -0.3741954579
 H         -3.4969016234       -0.6991869139       -0.2329690060
 H         -4.1869732403        0.9185544511       -0.4024205145
 C         -0.9432242816        0.5836368646        0.3872184681
 C         -0.2319137272       -0.4493410968        1.2211140927
 O          1.0814631458       -0.3620742071        1.1638971218
 C         -0.2650688086        1.9570275881        0.0419928315
 C         -0.9370480662        0.2414374370       -1.1500130405
 C         -2.3798588844        0.5426490967       -1.6171914604
 C         -0.4742029286       -1.1353648402       -1.5947133694
 O         -0.8210790900       -1.3174035764        1.8093097293
 C         -2.7848162182       -0.3340420520       -2.8021498208
 C         -0.4670215500       -1.2484225038       -3.1247078944
 H         -1.1439162910       -1.8818888489       -1.1619418522
 H          0.5276747820       -1.3287445690       -1.2094905487
 C         -1.6057316180       -0.4439603409       -3.7633321327
 H         -3.6475889195        0.1056199474       -3.3053573029
 H         -3.0718421971       -1.3304358474       -2.4619779588
 H         -0.5571084070       -2.3016871937       -3.3961356285
 H          0.4866830449       -0.8904573500       -3.5131864963
 H         -1.2583513646        0.5634972400       -4.0010831322
 H         -1.9177287571       -0.9160884743       -4.6958057660
 C          1.0720292482        2.5190707078        0.5279129907
 C          0.0499169461        1.3633664986       -1.2991288982
 H         -1.0371338139        2.7300279394        0.0329372305
 C          1.2560030286        1.6814011927       -1.7317299028
 C          1.8719941468        2.6930095371       -0.7891611174
 H          1.7653444842        3.7087662696       -1.1814068639
 H          2.9357951753        2.5013566889       -0.6480434314
 H          1.5814716902        1.8125915008        1.1780315929
 H          0.9524127289        3.4594111997        1.0630879640
 H          1.7785778780        1.3095830458       -2.5946998706
 H         -2.4285601461        1.5909433251       -1.9305002465
