  48
        -65.77530997
 Si         2.5892480350        1.6836721112       -0.7031700703
 C          4.1493968795        0.6737235407       -0.3219814928
 H          4.3281739646        0.6225983460        0.7482866893
 H          5.0295322851        1.1060658877       -0.7880979826
 H          4.0508728427       -0.3490378873       -0.6743262345
 C          2.1785634726        1.6954368223       -2.5640413950
 H          2.8746125374        2.3248625071       -3.1082268354
 H          1.1776134495        2.0793529159       -2.7421408786
 H          2.2313924451        0.7007019781       -2.9987275517
 C          2.6874668831        3.4469560419        0.0051372728
 O         -0.3909591089       -1.0569706426        3.2097593007
 H          3.5437450630        3.9749294734       -0.4008188672
 H          2.7870688656        3.4414449957        1.0870461959
 H          1.8016202294        4.0258869396       -0.2402453286
 C         -0.7430080772       -1.2327458057        2.0765003959
 C         -1.5258326193       -2.4101819880        1.5521739857
 H         -0.7967703751       -3.1936636501        1.3370666435
 H         -2.2154612605       -2.7955824257        2.3028567045
 C         -0.5289874459       -0.2624872208        0.9289824608
 C          0.9328975240       -0.0386631580        0.6463823971
 O          1.1882619496        1.0766320831       -0.0068809359
 C         -1.5390887102        0.9371469996        1.0187170737
 C         -1.3435345738       -0.8055406468       -0.3074935634
 C         -2.2192948133       -1.9434508031        0.2681685622
 C         -0.5992251456       -1.2251631734       -1.5674591447
 O          1.7715118785       -0.8532980142        0.9311030537
 C         -2.4354222785       -3.0624483348       -0.7482001738
 C         -0.0133462965       -2.6231461065       -1.4041623135
 H          0.1902367296       -0.5031696944       -1.7801122792
 H         -1.2949649786       -1.2056901120       -2.4096602016
 C         -1.1254798623       -3.6720796408       -1.2614595774
 H         -2.9995829408       -2.6505675996       -1.5872317822
 H         -3.0506204210       -3.8439752113       -0.2978600780
 H          0.6327982378       -2.6246299965       -0.5249330315
 H          0.6129356236       -2.8631265020       -2.2649649948
 H         -1.3238549120       -4.1362684554       -2.2293384431
 H         -0.7935493799       -4.4676440753       -0.5925524058
 C         -1.2654289031        2.4391989182        0.9202478390
 C         -1.9809442895        0.5533514060       -0.3611882505
 H         -2.2622754252        0.7209266600        1.8087776334
 C         -2.2056548796        1.5962927648       -1.1392791101
 C         -2.1021585315        2.8616165646       -0.3151208638
 H         -3.0929324089        3.2157892862       -0.0154926413
 H         -1.6205005851        3.6597559420       -0.8800208863
 H         -0.2123058127        2.6343243113        0.7359589439
 H         -1.5651340276        2.9716789776        1.8210941125
 H         -2.4176944819        1.6122378996       -2.1931545262
 H         -3.1984159280       -1.5294182108        0.5329995002
