  48
        -65.77336738
 Si         2.3836766918       -1.9744853721        0.0779553808
 C          2.7889892004       -2.2797872751       -1.7534649392
 H          3.0294971406       -1.3572292547       -2.2726199394
 H          1.9607663135       -2.7444338115       -2.2790789221
 H          3.6453333474       -2.9387046872       -1.8411579530
 C          3.7850386482       -1.0449302130        0.9672742325
 H          3.4875003557       -0.7810309149        1.9781173296
 H          4.0454526372       -0.1259925937        0.4471666648
 H          4.6835509498       -1.6498530289        1.0333961086
 C          1.8600602043       -3.5577123886        0.9878353256
 O         -2.1431383948       -0.5262529500        2.2640205577
 H          1.4743065965       -3.3175355873        1.9745257046
 H          2.6926261634       -4.2425167370        1.1123423108
 H          1.0769534007       -4.0851169999        0.4486396887
 C         -2.0005978469        0.1799125056        1.3061374606
 C         -3.1038454684        0.9083764557        0.5713463410
 H         -4.0315295336        0.3390350443        0.6230310613
 H         -3.2766608268        1.8524260908        1.0929421661
 C         -0.7019210613        0.5230728482        0.6094555507
 C          0.4200501800       -0.4217567327        0.9509375957
 O          1.0507682131       -0.9519909041       -0.0794314799
 C         -0.2871150172        2.0131854415        0.9399652143
 C         -1.0762414683        0.9842219449       -0.8445549202
 C         -2.6215712054        1.1398383886       -0.8652858445
 C         -0.5785836174        0.2427457120       -2.0769889938
 O          0.7409870190       -0.6372369760        2.0896390830
 C         -3.2692530052        0.1357983538       -1.8257663151
 C         -1.1668128458       -1.1662350037       -2.2029765010
 H          0.5087389897        0.1869250547       -2.0576542387
 H         -0.8600766936        0.8466106102       -2.9433692557
 C         -2.6049107811       -1.2270787672       -1.6788183854
 H         -3.1681226400        0.4798745881       -2.8565005559
 H         -4.3373552934        0.0687724924       -1.6098284602
 H         -0.5465780682       -1.8694524374       -1.6486883540
 H         -1.1397714884       -1.4590625655       -3.2546248737
 H         -3.1703729120       -1.9861513577       -2.2215107967
 H         -2.6059241798       -1.5099264721       -0.6239016592
 C          1.1109875649        2.4906481346        1.3360227280
 C         -0.3281080200        2.2519596632       -0.5394045550
 H         -1.0550352174        2.5145621925        1.5289914754
 C          0.6547977906        3.0286000901       -0.9606433457
 C          1.4247440987        3.5390867698        0.2392197833
 H          1.0785622891        4.5324079075        0.5389547441
 H          2.4916432861        3.6058495620        0.0284698346
 H          1.8308437176        1.6740543751        1.2800667642
 H          1.1469268553        2.9078648294        2.3402343565
 H          0.9293650834        3.2719073538       -1.9708890056
 H         -2.8767330765        2.1517747592       -1.1942615192
