  48
        -65.77310167
 Si         2.7084081969        1.3364608759       -0.8560872995
 C          2.8098165365        0.9055327928       -2.7040462050
 H          1.9604472058        1.2959787224       -3.2559453500
 H          2.8413291898       -0.1676210408       -2.8649019428
 H          3.7077161524        1.3295589567       -3.1388331966
 C          2.5406937804        3.2075683366       -0.5601235566
 H          3.4448495282        3.7375965191       -0.8414001788
 H          2.3493423081        3.4121721774        0.4895779482
 H          1.7201521384        3.6293545868       -1.1358445268
 C          4.1201036171        0.5571507760        0.1488786025
 O         -0.2935111549       -0.6670447636        3.2197682591
 H          3.9533331843        0.6999894972        1.2126583960
 H          5.0796209147        0.9983491202       -0.1004747684
 H          4.1918091254       -0.5125004478       -0.0324186302
 C         -0.6811305754       -0.9636007695        2.1251524336
 C         -1.3656813987       -2.2557412278        1.7497629442
 H         -0.5849063864       -3.0108782919        1.6414896804
 H         -2.0317247729       -2.5870159801        2.5464339290
 C         -0.5999135632       -0.1031568319        0.8796410695
 C          0.7374628624        0.5822045517        0.7549715800
 O          1.2512510757        0.5825383722       -0.4620670623
 C         -1.7718066002        0.9566458950        0.8476493484
 C         -1.3138103126       -0.8692943277       -0.2911200827
 C         -2.0827678856       -2.0142193810        0.4198962318
 C         -0.5620309785       -1.3786417229       -1.5130448696
 O          1.2767002127        1.1200181870        1.6839635288
 C         -2.1790465629       -3.2706676771       -0.4432915667
 C          0.1789728485       -2.6671658816       -1.1783143267
 H          0.1325622974       -0.6190246017       -1.8624244322
 H         -1.2845631897       -1.5601569678       -2.3116629492
 C         -0.8103018092       -3.8034590782       -0.8835273887
 H         -2.7790031174       -3.0332657545       -1.3235613632
 H         -2.7125558580       -4.0458336501        0.1106364641
 H          0.8192904584       -2.4796517869       -0.3136575160
 H          0.8302980172       -2.9475962276       -2.0074286837
 H         -0.9534722377       -4.4115650393       -1.7785361520
 H         -0.3980198651       -4.4630511624       -0.1179196028
 C         -1.6204864817        2.4536980860        0.5756025824
 C         -2.1151321979        0.3842331530       -0.4955295432
 H         -2.4838234786        0.7594006060        1.6502126679
 C         -2.4312449434        1.3118677733       -1.3816005146
 C         -2.4935149778        2.6566385066       -0.6886296914
 H         -3.5212103838        2.9131967367       -0.4157057165
 H         -2.1096962319        3.4508613099       -1.3284753392
 H         -0.5835920671        2.7043254658        0.3513123194
 H         -1.9460581165        3.0683279037        1.4122981204
 H         -2.6051225020        1.1973781199       -2.4359955193
 H         -3.1009354171       -1.6705031479        0.6315555971
