  48
        -65.78106501
 Si         2.9608447925        1.5922334768       -0.4871254760
 C          4.1311425482        0.2562631440        0.1868935393
 H          5.1726894316        0.5534511249        0.1183314180
 H          4.0124073353       -0.6735514425       -0.3625531321
 H          3.9089410664        0.0489487589        1.2307698618
 C          3.0775956008        1.7760965139       -2.3788726893
 H          2.3965753729        2.5397809301       -2.7463898318
 H          2.8213037665        0.8422662558       -2.8712567884
 H          4.0792762582        2.0526201710       -2.6914197302
 C          3.1321339120        3.2558845957        0.4101598594
 O          0.8734118747       -0.4516048491        2.4602767665
 H          2.4113840613        3.9836331862        0.0504771686
 H          4.1229115762        3.6689106647        0.2575599656
 H          2.9800077913        3.1425779290        1.4786626828
 C         -0.1367758051       -0.6529041266        1.8455420259
 C         -1.3522617776       -1.4144529082        2.3292342652
 H         -1.0773005382       -2.1633018752        3.0709710386
 H         -2.0313656189       -0.7018980241        2.8027534981
 C         -0.4630270761       -0.1328848285        0.4541708116
 C          0.7810447441        0.0541155981       -0.3650926396
 O          1.3850097306        1.1832106755       -0.0609339826
 C         -1.3672799072        1.1271540449        0.6908770941
 C         -1.7107089856       -0.9527170804       -0.0256186523
 C         -1.9620938136       -2.0123811528        1.0613549172
 C         -1.7970683317       -1.4975372253       -1.4504979722
 O          1.2067555936       -0.7398567387       -1.1640493183
 C         -1.2417805066       -3.3283058157        0.7527567808
 C         -1.0807628017       -2.8252105802       -1.6621775869
 H         -1.3986186821       -0.7497316258       -2.1380124227
 H         -2.8599867659       -1.6252819786       -1.6757407555
 C         -1.5631737809       -3.8452500388       -0.6416579518
 H         -1.5188274930       -4.0679581240        1.5077414598
 H         -0.1636845215       -3.1620407551        0.8226713506
 H         -0.0066849977       -2.6752670385       -1.5554388016
 H         -1.2765787708       -3.1763839511       -2.6770070933
 H         -2.6407067860       -3.9973318466       -0.7441080864
 H         -1.0693109709       -4.8049024351       -0.8029198729
 C         -1.3791779739        2.4209025146       -0.1229180870
 C         -2.4871861264        0.3396623311        0.0726120225
 H         -1.4681054965        1.3576171432        1.7535986352
 C         -3.3141452549        1.1059762312       -0.6210670566
 C         -2.8849562643        2.5502681145       -0.4631566087
 H         -3.4254257964        3.0445213424        0.3492091118
 H         -3.0550460240        3.1182795465       -1.3769640543
 H         -0.8061896560        2.3032711099       -1.0430354552
 H         -0.9884772050        3.2771843770        0.4227963583
 H         -4.1392436248        0.8129797603       -1.2444332888
 H         -3.0353857113       -2.1956271725        1.1641489695
