  48
        -65.78098480
 Si         2.9471560614        1.6827804736        0.1921377651
 C          2.9843052927        2.6814028001       -1.4293091379
 H          3.9653784393        3.1067527583       -1.6132604563
 H          2.2704105612        3.5011064470       -1.4060805449
 H          2.7324203042        2.0491269495       -2.2761132945
 C          3.1448462971        2.7824093609        1.7257957846
 H          3.0175228239        2.2077046729        2.6375407059
 H          2.4168105724        3.5874288977        1.7403160124
 H          4.1324198350        3.2293404057        1.7489201549
 C          4.1592775443        0.2199795196        0.1671195409
 O          0.7565252944       -1.1655041004        2.2559023004
 H          5.1934430680        0.5489719781        0.1523216205
 H          3.9941307416       -0.4026327841       -0.7077666750
 H          4.0198228292       -0.4057008747        1.0451345380
 C         -0.2191086159       -1.1741438033        1.5584401378
 C         -1.4459307037       -2.0443919494        1.7314036570
 H         -1.1993934392       -2.9749420040        2.2411126978
 H         -2.1643254830       -1.4999856758        2.3482125654
 C         -0.4842268541       -0.2699480350        0.3656069340
 C          0.7877648374        0.1831160014       -0.2905883257
 O          1.3858550336        1.1050772646        0.4337321918
 C         -1.4318764356        0.8587712662        0.9064918947
 C         -1.6834366878       -0.9213655138       -0.4067296998
 C         -1.9708863055       -2.2522651021        0.3107138859
 C         -1.6771088982       -1.0318971572       -1.9304204991
 O          1.2315892228       -0.2522383768       -1.3217441852
 C         -1.2036549587       -3.4188053730       -0.3192477599
 C         -0.9136375679       -2.2343787575       -2.4700635423
 H         -1.2611333523       -0.1141763201       -2.3484498065
 H         -2.7220506805       -1.1004608947       -2.2468737005
 C         -1.4274641336       -3.5109297513       -1.8212812244
 H         -1.5088545108       -4.3468997654        0.1700134702
 H         -0.1357657137       -3.2758821552       -0.1342634049
 H          0.1479416876       -2.1109707474       -2.2565567248
 H         -1.0393324226       -2.2778642316       -3.5534441270
 H         -2.4924796782       -3.6357912641       -2.0327873846
 H         -0.8994315793       -4.3783885492       -2.2208102324
 C         -1.4226870556        2.3337342353        0.5059678998
 C         -2.4939410113        0.2821094316        0.0144127159
 H         -1.5990736295        0.7667542026        1.9815366977
 C         -3.2931453967        1.2149279656       -0.4791036061
 C         -2.9069599550        2.5519198668        0.1195711501
 H         -3.5076742183        2.7866349111        1.0029419486
 H         -3.0323518612        3.3607900495       -0.5991763267
 H         -0.7915937134        2.4913779211       -0.3693151756
 H         -1.0857484855        2.9951091316        1.3014983602
 H         -4.0709023113        1.1137394939       -1.2139489890
 H         -3.0436644525       -2.4638927676        0.2912966598
