  48
        -65.78430932
 Si         2.5785952100       -1.9371224984       -0.1568124972
 C          3.8177819417       -0.9855817852        0.9272597837
 H          3.4914510628       -0.9564126145        1.9640154761
 H          3.9228954339        0.0362142843        0.5807944789
 H          4.7989982823       -1.4481403226        0.9032465647
 C          2.5419246699       -3.7697540665        0.3810297070
 H          2.3716980483       -3.8784868749        1.4480116275
 H          3.4836568546       -4.2550573115        0.1494949619
 H          1.7581403651       -4.3181837874       -0.1321604515
 C          2.9136204708       -1.8464750535       -2.0235265156
 O          1.0116396357       -1.4973896243        0.1616577001
 H          2.1149570794       -2.3185463544       -2.5893488746
 H          3.8392155730       -2.3540535508       -2.2752084269
 H          2.9944567790       -0.8170169995       -2.3541799268
 C          0.3488676339       -0.5103972679        0.7652860686
 C         -0.8469233558       -1.0056861995        1.5409124759
 H         -0.9473592534       -2.0593088435        1.2759317210
 H         -0.6369059025       -0.9528820368        2.6110683917
 C          0.5979455034        0.8083353009        0.6056075763
 C          1.2404670547        1.2769076631       -0.6415516735
 O          0.4424232501        2.0181110987       -1.4406340746
 C         -0.3586074355        1.8206160577        1.2063166635
 C         -2.1915844062        0.5861287949        0.0493403364
 C         -2.2210873172       -0.2794342037        1.2860542844
 C         -2.8483695966        0.1518820840       -1.2302140888
 O          2.3381878065        0.9776631835       -1.0374797427
 C         -3.3683353296       -1.2960129849        1.3017798008
 C         -4.0166816066       -0.8074504819       -1.0337463061
 H         -2.0805958848       -0.3544131931       -1.8279888593
 H         -3.1703168278        1.0285024963       -1.7962825447
 C         -3.6152737169       -1.9137940029       -0.0673982349
 H         -4.2826170221       -0.7866933831        1.6169838031
 H         -3.1548931075       -2.0695310086        2.0420853657
 H         -4.3063199440       -1.2253202238       -1.9996468559
 H         -4.8774918531       -0.2696993669       -0.6297090964
 H         -4.4068013043       -2.6621252265        0.0028817873
 H         -2.7113494842       -2.4076363380       -0.4291633555
 C          0.1352526379        3.2714458557        1.1185544376
 C         -1.3692197385        1.6358862905        0.1056229094
 H         -0.6604144520        1.5436313682        2.2120778506
 C         -0.8067798161        2.5406878736       -0.9536456051
 C         -0.4921791518        3.8187619136       -0.1734575240
 H         -1.4181977299        4.3555088270        0.0327716534
 H          0.1809171620        4.4696341428       -0.7282673471
 H          1.2244526907        3.3046709566        1.0703052453
 H         -0.1805752010        3.8458816856        1.9883601706
 H         -1.4231563029        2.6907983834       -1.8405572174
 H         -2.3815906693        0.3898214107        2.1379294186
