  48
        -65.78423989
 Si         2.4033210375       -1.5756067400       -0.2776376727
 C          4.2804115762       -1.3861067626       -0.1133955744
 H          4.5682566664       -0.3525961964       -0.2767267683
 H          4.8027022397       -2.0000161056       -0.8394447754
 H          4.6257573548       -1.6737051008        0.8747384318
 C          1.8402911092       -3.3724452073        0.0659871236
 H          2.0583799140       -3.6633688230        1.0896005886
 H          2.3549410661       -4.0708340193       -0.5853778905
 H          0.7739243428       -3.5109769688       -0.0935208414
 C          1.7503597440       -1.0564167226       -1.9883450216
 O          1.8349542613       -0.6480635483        0.9586080152
 H          0.6781301305       -0.8780818614       -1.9739444670
 H          1.9483031603       -1.8134679565       -2.7410952948
 H          2.2231827521       -0.1351846319       -2.3129315515
 C          0.7339043324        0.0480436565        1.2526120122
 C         -0.3292274581       -0.6863721674        2.0229614061
 H          0.0359717972       -1.7028667803        2.1703594357
 H         -0.4518301898       -0.2320229353        3.0072436741
 C          0.5158202988        1.3023795387        0.8067944115
 C          1.1901037874        1.7670364742       -0.4268922276
 O          0.3485433199        2.0183431262       -1.4599823743
 C         -0.8360385721        1.9348912031        1.0452256861
 C         -1.8181305835       -0.0823764303       -0.0255914675
 C         -1.7456563370       -0.7533070041        1.3262268641
 C         -2.2313450250       -0.9431039296       -1.1765802858
 O          2.3760312936        1.8292787218       -0.6128420087
 C         -2.2068998624       -2.2060199460        1.2072870150
 C         -3.5557203799       -1.6557313340       -0.8778040698
 H         -1.4532918834       -1.6915984533       -1.3523322936
 H         -2.3284832973       -0.3487019641       -2.0855416467
 C         -3.5756403758       -2.2711709146        0.5325889497
 H         -2.2723671550       -2.6512535721        2.2021734584
 H         -1.4802085409       -2.7828609098        0.6335119813
 H         -3.7138164543       -2.4280683989       -1.6319435017
 H         -4.3696406712       -0.9355849968       -0.9740598648
 H         -4.2905356532       -1.7330718131        1.1583997374
 H         -3.9045179612       -3.3101172944        0.4846891362
 C         -0.8977518357        3.4307487151        0.7086380114
 C         -1.4649448742        1.1992779421       -0.1091490519
 H         -1.2302934381        1.7080442318        2.0315234972
 C         -1.0750124235        2.0838727393       -1.2597659079
 C         -1.4062281303        3.4839830652       -0.7410417834
 H         -2.4847418851        3.6385494039       -0.7773639747
 H         -0.9159835498        4.2543414066       -1.3331263355
 H          0.0907480578        3.8834794429        0.7938940273
 H         -1.5690315316        3.9577351920        1.3853017589
 H         -1.5143028915        1.8461347389       -2.2294203166
 H         -2.4487297131       -0.2354136864        1.9889128132
