  48
        -65.78395862
 Si         2.5689335999       -1.6909302581       -0.0684255933
 C          4.1291390575       -0.9207955912        0.6950011570
 H          4.1371924694       -1.0414424747        1.7750676524
 H          4.1884025981        0.1386117576        0.4747349524
 H          5.0244850872       -1.3936621447        0.3044905431
 C          2.5346685633       -3.5603735563        0.3133806846
 H          1.6568330889       -4.0445655311       -0.1032327592
 H          2.5362455701       -3.7507842642        1.3818896752
 H          3.4061295481       -4.0502190309       -0.1067298821
 C          2.4146574589       -1.4540376502       -1.9510822999
 O          1.1912591753       -1.2563284442        0.7331530798
 H          3.1092740082       -2.0963096173       -2.4831846711
 H          2.6259382879       -0.4294356382       -2.2363992289
 H          1.4132469696       -1.6955789751       -2.2995037340
 C          0.3641943668       -0.2771614718        1.0871836937
 C         -0.8550807091       -0.8012315043        1.8061637196
 H         -0.7765009496       -1.8881683831        1.7639144837
 H         -0.8207307500       -0.5057439710        2.8561175708
 C          0.4688024184        1.0291165921        0.7571236281
 C          1.2303729473        1.4411973597       -0.4406964804
 O          0.4729920232        1.9231839657       -1.4500052031
 C         -0.6910925263        1.9585935003        1.0679449223
 C         -2.1453696330        0.3118323038       -0.1143825285
 C         -2.2580208383       -0.3666089121        1.2294309994
 C         -2.5194854467       -0.3905300767       -1.3895332830
 O          2.4133837223        1.2999192076       -0.6184096189
 C         -3.2275118988       -1.5533975218        1.2408429264
 C         -3.5345468386       -1.5137235371       -1.2103988024
 H         -1.5967334744       -0.8196361696       -1.7990864639
 H         -2.8855893465        0.3363516747       -2.1178583134
 C         -3.1334308968       -2.3871042394       -0.0291633971
 H         -4.2481297035       -1.1713882798        1.3249657309
 H         -3.0366945592       -2.1677681314        2.1228086734
 H         -3.5841033267       -2.1035667695       -2.1275845992
 H         -4.5268738948       -1.0948451054       -1.0282891895
 H         -3.7956005822       -3.2515349839        0.0455669201
 H         -2.1133145358       -2.7501839346       -0.1686417362
 C         -0.3858221353        3.4423442755        0.8196038047
 C         -1.4871302157        1.4732554113       -0.1145822208
 H         -1.1046149167        1.7781525011        2.0555217931
 C         -0.8958951640        2.3025315589       -1.2191502551
 C         -0.8791828852        3.7070636406       -0.6120295041
 H         -1.8898900084        4.1152490616       -0.6131009988
 H         -0.2244744422        4.3749281276       -1.1686583079
 H          0.6840706598        3.6353054506        0.9078523636
 H         -0.9020163841        4.0741989522        1.5410625830
 H         -1.3842987226        2.2339122762       -2.1916319350
 H         -2.6598945064        0.3772400920        1.9256071793
