  48
        -65.78382895
 Si         2.8012543997        0.3997401487       -0.0627886382
 C          2.0365875073        0.1477345301       -1.7906849607
 H          2.7132502648       -0.3734094794       -2.4613058203
 H          1.7877501031        1.1003576028       -2.2460717265
 H          1.1165715659       -0.4292555876       -1.7324064113
 C          3.7015427264        2.0563889803        0.1484013948
 H          3.0347842963        2.8874655115       -0.0524682440
 H          4.5447863113        2.1299189638       -0.5309356905
 H          4.0818547654        2.1680215862        1.1600086327
 C          3.9952861490       -1.0395809078        0.3187767056
 O          1.6875502500        0.1812111407        1.1407584396
 H          4.2966190141       -1.0315942691        1.3613101569
 H          4.8945011982       -0.9552312798       -0.2815832208
 H          3.5571842812       -2.0119777713        0.1131337465
 C          0.3809288836        0.2626022234        1.3734124580
 C         -0.1902525091       -0.9163492241        2.1194596842
 H          0.6379754783       -1.4617887846        2.5723113539
 H         -0.8455642412       -0.5922219905        2.9258938913
 C         -0.4783427335        1.1847013327        0.8907824840
 C         -0.2194476127        1.9567179157       -0.3397314731
 O         -1.0788198670        1.7131425627       -1.3590902530
 C         -1.9515068161        0.9334289612        1.1147693585
 C         -1.6173708746       -1.2747709800       -0.0599210714
 C         -0.9416466787       -1.9013224036        1.1535409252
 C         -1.8624697795       -2.1536727813       -1.2606143222
 O          0.7121589334        2.6946782859       -0.5360382640
 C          0.1129953945       -2.9360758590        0.7170027013
 C         -0.7273010872       -3.1121869449       -1.5971248675
 H         -2.0963829355       -1.5356341994       -2.1274083439
 H         -2.7552798454       -2.7518067152       -1.0394527329
 C         -0.3664370100       -3.9047107888       -0.3523691163
 H          0.4320596537       -3.4946360632        1.5999599432
 H          0.9808621723       -2.3951209339        0.3325515265
 H          0.1457950841       -2.5537336208       -1.9404993228
 H         -1.0408941873       -3.7757971025       -2.4054335465
 H         -1.2395888239       -4.4577356533        0.0020875101
 H          0.4232006106       -4.6255283449       -0.5728118985
 C         -2.8512475394        2.1417034761        0.8126158839
 C         -2.0724190636       -0.0193008423       -0.0462559963
 H         -2.1745219253        0.5108339544        2.0874868326
 C         -2.2931235563        0.9579408504       -1.1715937219
 C         -3.3492107799        1.9113833329       -0.6206106906
 H         -4.3227204135        1.4209772532       -0.6316068192
 H         -3.4046054386        2.8289982133       -1.2030783685
 H         -2.2809295521        3.0687732975        0.8836156333
 H         -3.6780307752        2.2014910461        1.5190064226
 H         -2.5274344471        0.5491941061       -2.1543592707
 H         -1.7085808634       -2.4156701128        1.7455065066
