  48
        -65.78355428
 Si         2.9685454662       -0.2241741312       -0.4148164772
 C          4.0041302053       -1.7428818548        0.0975572326
 H          4.3306122563       -1.6724312865        1.1302020268
 H          4.8916726930       -1.8238125677       -0.5203088285
 H          3.4490569315       -2.6702288750       -0.0063294056
 C          2.3025624646       -0.5013365917       -2.1769409578
 H          1.8780178877        0.4114899354       -2.5803952251
 H          1.5272256769       -1.2639107908       -2.1942246346
 H          3.0927571657       -0.8241960694       -2.8475337705
 C          4.0060492943        1.3530811016       -0.2054550061
 O          1.7788294294       -0.3518413673        0.7273541531
 H          4.9143192257        1.3012550336       -0.7972384945
 H          4.2963497066        1.4951700680        0.8322579935
 H          3.4507651904        2.2284140337       -0.5218893345
 C          0.6272448424        0.1373876714        1.1671351711
 C         -0.0758728377       -0.7718279236        2.1469484296
 H          0.6514899578       -1.4942853822        2.5188699071
 H         -0.4555578803       -0.2211632850        3.0050510183
 C         -0.0341227914        1.2324240648        0.7312682319
 C          0.1205788680        1.7755835798       -0.6301229499
 O         -0.9960964852        1.7430727782       -1.3974352521
 C         -1.4239017125        1.4555223139        1.2819642865
 C         -2.0110003210       -0.8261669225        0.3708550224
 C         -1.2209600208       -1.5712499808        1.4393582619
 C         -2.7766571025       -1.6710430735       -0.6137324085
 O          1.1485098287        2.1498129285       -1.1370753676
 C         -0.5323538212       -2.8051420783        0.8194224548
 C         -1.9697524861       -2.8257871521       -1.1935998732
 H         -3.1664957347       -1.0445304184       -1.4153420828
 H         -3.6379956813       -2.0907843165       -0.0801335362
 C         -1.4374617945       -3.6676369218       -0.0462059817
 H         -0.1204905764       -3.4109814252        1.6297849917
 H          0.3036461369       -2.4548713323        0.2095983379
 H         -1.1378057014       -2.4350718851       -1.7830167705
 H         -2.6029262208       -3.4218113895       -1.8537099438
 H         -2.2711483720       -4.0526525060        0.5461881220
 H         -0.8718638076       -4.5208441245       -0.4257947411
 C         -1.9899618577        2.8582102027        1.0088025769
 C         -2.0885282303        0.5054482531        0.3202503341
 H         -1.5183319015        1.1964248277        2.3298214851
 C         -2.2947927572        1.4214442847       -0.8574865935
 C         -2.8673059841        2.6924455376       -0.2389838168
 H         -3.9122225801        2.5293779633        0.0253186898
 H         -2.7987869932        3.5376265152       -0.9211534905
 H         -1.1806226455        3.5662323123        0.8256490097
 H         -2.5665381355        3.2205778037        1.8587532262
 H         -2.8638666670        1.0362508517       -1.7033086492
 H         -1.9154633599       -1.9121649989        2.2167122499
