  48
        -65.78348859
 Si         3.0144080698       -0.6273077203        0.1568003643
 C          2.8830798887       -0.7695648774       -1.7358228173
 H          2.1514967680       -1.5192721481       -2.0276888145
 H          3.8352330447       -1.0554278872       -2.1715224478
 H          2.5858241325        0.1756403679       -2.1767744788
 C          4.0252970256        0.8601731519        0.7704265303
 H          3.6512073105        1.7837548272        0.3439405490
 H          5.0695696213        0.7627133054        0.4916747424
 H          3.9794959548        0.9459916889        1.8530902337
 C          3.7663971221       -2.2415995649        0.8430276959
 O          1.5299938618       -0.7280121612        0.8830570902
 H          3.1792228008       -3.1112690043        0.5646682582
 H          3.8323550263       -2.2259928083        1.9263864866
 H          4.7692086225       -2.3886215888        0.4573345341
 C          0.4268720992       -0.0572349190        1.1860583913
 C         -0.5588309831       -0.8595917894        2.0021949392
 H         -0.0286498207       -1.7113399092        2.4299088126
 H         -0.9619756683       -0.2785941571        2.8291028558
 C          0.0338708337        1.1509078982        0.7237380460
 C          0.4712702332        1.6896522923       -0.5763301948
 O         -0.5149973919        1.8894800664       -1.4842242798
 C         -1.3605689826        1.6022196817        1.0925815235
 C         -2.2004796931       -0.5061302094       -0.0176366474
 C         -1.7050528198       -1.4196878189        1.0961894777
 C         -2.9550200178       -1.1672352564       -1.1414041970
 O          1.6105157241        1.8736548362       -0.9265201286
 C         -1.1433768674       -2.7233587620        0.4908158348
 C         -2.2734319381       -2.4153085628       -1.6881735609
 H         -3.1285090977       -0.4507642336       -1.9436606474
 H         -3.9358776049       -1.4587167899       -0.7468557940
 C         -2.0460556142       -3.3835921333       -0.5395393967
 H         -0.9501052478       -3.4244126115        1.3060048958
 H         -0.1857713915       -2.4911698214        0.0190608994
 H         -1.3164897949       -2.1449902090       -2.1390451117
 H         -2.8981258417       -2.8670522601       -2.4612183914
 H         -3.0042081860       -3.6495714491       -0.0862516443
 H         -1.5769285377       -4.3018492200       -0.8982537053
 C         -1.6287243913        3.0921262484        0.8259135561
 C         -2.0386309318        0.8186651724       -0.0007803130
 H         -1.6464122131        1.3319598518        2.1022574675
 C         -1.9133107611        1.7936703462       -1.1418311601
 C         -2.3354896332        3.1276151003       -0.5354076055
 H         -3.4195688196        3.1491140168       -0.4231328989
 H         -2.0234279635        3.9670453062       -1.1537629187
 H         -0.6905470456        3.6476762543        0.7931695345
 H         -2.2478343241        3.5254237439        1.6102261432
 H         -2.4153092614        1.5446556792       -2.0765153542
 H         -2.5499349987       -1.6720980925        1.7483383911
