  48
        -65.78348063
 Si         3.0080307862       -0.6582118248       -0.4074532429
 C          3.8896524714       -2.2442248601        0.1843748954
 H          3.2696656927       -3.1247414572        0.0478286373
 H          4.1528532231       -2.1907354311        1.2361252145
 H          4.8062302229       -2.4011692842       -0.3734413087
 C          2.5791643487       -0.8462114892       -2.2508256145
 H          3.4595463638       -1.1058297691       -2.8301610140
 H          2.1768708269        0.0775142936       -2.6520790943
 H          1.8412524986       -1.6290993959       -2.4081242805
 C          4.0763073652        0.8576110977        0.0087228251
 O          1.6548394529       -0.7630967896        0.5421053435
 H          3.6314993729        1.7635530317       -0.3865365116
 H          5.0706602118        0.7615896976       -0.4152912681
 H          4.1860607533        0.9774625594        1.0836024254
 C          0.6490540230       -0.0658308176        1.0532848192
 C         -0.1628717684       -0.8346115420        2.0687644787
 H          0.4267999519       -1.6932893846        2.3920528862
 H         -0.3733557145       -0.2336453411        2.9511137355
 C          0.1926069348        1.1442654994        0.6589687030
 C          0.3596111750        1.6492911193       -0.7153072160
 O         -0.7902531619        1.8632280836       -1.4001492075
 C         -1.0845280473        1.6343707390        1.3011846469
 C         -2.1830292148       -0.4674357255        0.4301662230
 C         -1.4839002786       -1.3787016115        1.4308324306
 C         -3.1710004166       -1.1246484803       -0.4978329691
 O          1.4036163096        1.7931370646       -1.3017433445
 C         -1.0869271491       -2.7012254380        0.7416309425
 C         -2.6444413234       -2.3938549166       -1.1559454680
 H         -3.4967160872       -0.4139419233       -1.2566927070
 H         -4.0514419856       -1.3897348056        0.0998779423
 C         -2.1986336406       -3.3533767439       -0.0654382311
 H         -0.7399099947       -3.3970243887        1.5089995030
 H         -0.2457892903       -2.4952965896        0.0756152975
 H         -1.7990036339       -2.1502083182       -1.8024537748
 H         -3.4267497104       -2.8405483969       -1.7727122531
 H         -3.0447349357       -3.5931797813        0.5833818091
 H         -1.8329717113       -4.2857551174       -0.5000993681
 C         -1.3703692678        3.1267067427        1.0686152944
 C         -1.9929664200        0.8530122642        0.3884641976
 H         -1.1586329121        1.3851671028        2.3531775843
 C         -2.0878706445        1.8086001453       -0.7717549899
 C         -2.3444657285        3.1613008739       -0.1162447775
 H         -3.3805611349        3.2122922305        0.2186918019
 H         -2.1495726325        3.9836707417       -0.8019021964
 H         -0.4478760687        3.6581635096        0.8310842671
 H         -1.8029072520        3.5858866692        1.9564427048
 H         -2.7795075441        1.5592997500       -1.5762050736
 H         -2.1785302942       -1.6049495224        2.2488241711
