  48
        -65.78341290
 Si         2.8061801353       -0.5606403161       -0.1847153515
 C          2.2294535075        0.0086009706       -1.9066681298
 H          2.3124289190        1.0861879693       -2.0015596771
 H          1.1902265926       -0.2502602940       -2.0940293611
 H          2.8251430705       -0.4417360621       -2.6948334378
 C          4.4018554297        0.3000928304        0.3645843158
 H          4.2500794833        1.3737881766        0.4095911639
 H          5.2144510943        0.1034068438       -0.3267417193
 H          4.7157606222       -0.0321587203        1.3492859695
 C          2.9979895097       -2.4643453336       -0.2120678648
 O          1.7567426166       -0.2319960239        1.0390297391
 H          3.8394422955       -2.7591281125       -0.8299005000
 H          2.1180955407       -2.9644392154       -0.6093081398
 H          3.1753474280       -2.8557033862        0.7855467799
 C          0.4652402634        0.0078132504        1.2767277676
 C         -0.3243853973       -1.1880326918        1.7429188053
 H          0.3200523783       -2.0505854356        1.5672310043
 H         -0.5038622297       -1.1231777345        2.8177681982
 C         -0.1121496270        1.2022016567        1.0282904857
 C          0.4710369985        2.0635245183       -0.0270013212
 O         -0.3156325004        2.1926464921       -1.1220883665
 C         -1.6075345028        1.3664467176        1.1920382498
 C         -1.8597395064       -0.6599561706       -0.2432513703
 C         -1.7156770992       -1.4353236247        1.0441766221
 C         -1.7390304150       -1.3314477412       -1.5821376223
 O          1.5768931240        2.5344253130       -0.0398610703
 C         -1.9682244023       -2.9404580115        0.8965236557
 C         -2.1071035534       -2.8106503320       -1.5686014929
 H         -0.6929619848       -1.2425694830       -1.8996917442
 H         -2.3443138825       -0.7974786200       -2.3178144103
 C         -1.4103661088       -3.5010450386       -0.4039488492
 H         -3.0467105751       -3.1171046079        0.9088031444
 H         -1.5432340231       -3.4630558168        1.7556363236
 H         -1.8139205033       -3.2636623595       -2.5174970287
 H         -3.1880951975       -2.9255644334       -1.4621983204
 H         -1.5800853025       -4.5785066245       -0.4440483078
 H         -0.3344003007       -3.3243806014       -0.4622111233
 C         -2.0973094060        2.8130495845        1.0396758652
 C         -1.8943505997        0.6683932635       -0.1112310021
 H         -1.9705320429        0.8958365284        2.1008478737
 C         -1.6988941578        1.7955936921       -1.0870429036
 C         -2.4851705268        2.9389274174       -0.4423515803
 H         -3.5526982807        2.7731507154       -0.5877944518
 H         -2.2124589592        3.9014415700       -0.8708313777
 H         -1.3050113363        3.5161536354        1.2992639984
 H         -2.9478366105        3.0085974260        1.6912812053
 H         -1.9663005145        1.5898307476       -2.1241708132
 H         -2.4784986787       -1.0551501696        1.7313541887
