  48
        -65.78083788
 Si         3.2734605901        0.0343866228        0.1154100233
 C          3.2800682555       -1.7133043240       -0.6635744953
 H          3.0013145458       -2.4927991218        0.0412064665
 H          4.2673199985       -1.9631138989       -1.0390392705
 H          2.5930163256       -1.7653683927       -1.5042434721
 C          4.1408618829        1.2879672953       -1.0068851150
 H          3.9680385848        2.3008399252       -0.6584858170
 H          3.7664178399        1.2309953660       -2.0239392984
 H          5.2121082712        1.1182360791       -1.0370091887
 C          4.0549038346       -0.0467706199        1.8559582110
 O          1.7541844676        0.6498024233        0.1859274897
 H          3.9889136619        0.9188113023        2.3493990679
 H          5.1048822800       -0.3156732589        1.8050048188
 H          3.5651596609       -0.7737271382        2.4990010742
 C          0.5866642399        0.4528172393        0.8019445704
 C          0.3453706723       -0.8392855943        1.5271238320
 H          1.2608869120       -1.4251743856        1.4725126138
 H          0.1445098917       -0.6317173812        2.5793991589
 C         -0.4233052667        1.3370292936        0.6483984705
 C         -0.4304612994        2.2469857212       -0.5268551625
 O         -1.4383557496        2.0080550460       -1.4034278933
 C         -1.8027888560        0.9698198669        1.1466288272
 C         -1.5750056260       -1.1005740550       -0.2129088147
 C         -0.8422462016       -1.7148713197        0.9567693391
 C         -1.5793538117       -1.8827487059       -1.4873878325
 O          0.3964812012        3.0736836845       -0.7963542172
 C         -0.3379870815       -3.1070011925        0.5751342329
 C         -2.0737901284       -3.3173152173       -1.2649868662
 H         -0.5566959879       -1.9068607425       -1.8750646539
 H         -2.1994547139       -1.3904764655       -2.2364591181
 C         -1.4870033683       -3.9404760917        0.0127713687
 H          0.0722352578       -3.6023178849        1.4579876280
 H          0.4593699560       -3.0267856198       -0.1644063088
 H         -1.8063473075       -3.9165923760       -2.1366908575
 H         -3.1627791429       -3.3084511961       -1.1984682683
 H         -2.2629156619       -4.0119537284        0.7780027125
 H         -1.1366644101       -4.9534077705       -0.1902983145
 C         -2.8052709147        2.1313362686        1.1243027302
 C         -2.0876520155        0.1197724071       -0.0636504337
 H         -1.7772044401        0.4538542102        2.1021747889
 C         -2.5441662128        1.1606468717       -1.0470701467
 C         -3.5268313398        1.9978468023       -0.2261779604
 H         -4.4660158900        1.4543024122       -0.1211393208
 H         -3.7223042510        2.9588739193       -0.6978790450
 H         -2.2849989533        3.0870467818        1.1972236581
 H         -3.5037133257        2.0633590182        1.9573259279
 H         -2.9457509264        0.7949051397       -1.9928227605
 H         -1.5640508183       -1.8353318301        1.7729866427
