  48
        -65.78560497
 Si         3.0402521096       -0.1789044200       -0.1658308778
 C          2.9948994568        0.2526478650       -2.0166424774
 H          2.4517664574       -0.4987180823       -2.5845116329
 H          3.9987895910        0.3090015675       -2.4253351502
 H          2.5135010575        1.2101227354       -2.1822591538
 C          3.7637627151        1.1773761125        0.9524812730
 H          4.8192809154        1.3286634570        0.7512989854
 H          3.6620170235        0.9162755694        2.0029060238
 H          3.2552509741        2.1207772626        0.7903729379
 C          4.0363343147       -1.7921824089        0.0588205489
 O          1.5654892599       -0.7088037385        0.3682962334
 H          4.0802905915       -2.1001627102        1.0989519498
 H          5.0561150789       -1.6608881177       -0.2857852095
 H          3.6050927558       -2.6123157709       -0.5068703575
 C          0.4409837375       -0.3091196755        0.9532197065
 C         -0.3076780649       -1.4250228054        1.6319369492
 H          0.3253588196       -2.3102195265        1.5816991414
 H         -0.4486902143       -1.1802248311        2.6853858096
 C         -0.1295560812        0.9141426176        0.8762982031
 C          0.1604846165        1.8205596813       -0.2518061882
 O         -0.8893122364        2.0869359356       -1.0609952764
 C         -1.5308065179        1.0780590361        1.4334066344
 C         -2.1912343581       -0.8042896659       -0.0597387613
 C         -1.7127345317       -1.7730574005        0.9997420879
 C         -2.5028124821       -1.3907001913       -1.4013619205
 O          1.2440147388        2.2530119690       -0.5560928719
 C         -1.6865777871       -3.1874049417        0.4145696647
 C         -1.2724145319       -2.1690180439       -1.8779655325
 H         -2.7404609030       -0.6036827587       -2.1167266519
 H         -3.3658992886       -2.0582498240       -1.3401201534
 C         -0.8533342617       -3.2491891398       -0.8654097444
 H         -2.7094236270       -3.5044424027        0.2024590478
 H         -1.2817844981       -3.8847469149        1.1508699964
 H         -0.4564410799       -1.4566520200       -2.0144017185
 H         -1.4845218657       -2.6168125821       -2.8500180143
 H         -0.9613672946       -4.2428639442       -1.3038677616
 H          0.1996929524       -3.1169149449       -0.6148976582
 C         -1.9926705627        2.5378171808        1.5423380642
 C         -2.1760780331        0.5012017074        0.2018611257
 H         -1.6815817325        0.5258075621        2.3557005297
 C         -2.2272730200        1.7120918577       -0.6870119526
 C         -2.7686684125        2.7988921433        0.2421036609
 H         -3.8397456039        2.6540217218        0.3836848384
 H         -2.5940349454        3.7938814004       -0.1629588847
 H         -1.1347204330        3.2060822654        1.6269609647
 H         -2.6221262337        2.6862910133        2.4186684436
 H         -2.7736785727        1.6107415194       -1.6250667961
 H         -2.4347614261       -1.7589187564        1.8245144323
