  48
        -65.78066248
 Si         3.3093523471       -0.3684182058        0.1552837877
 C          3.3336748865       -2.2538597567       -0.1736453679
 H          4.3345366747       -2.5838388208       -0.4332216641
 H          2.6832648312       -2.5149807490       -1.0044169249
 H          3.0198427634       -2.8389967159        0.6873305865
 C          4.2137376660        0.5750989812       -1.2152675690
 H          5.2903055693        0.5108959676       -1.0972964691
 H          3.9318860264        1.6230593417       -1.2031103749
 H          3.9665679660        0.1840804884       -2.1972813122
 C          4.0088574165       -0.0217640555        1.8956544777
 O          1.7898373485        0.2414024942        0.0275234632
 H          3.4398453284       -0.5293863125        2.6707055110
 H          3.9759163235        1.0421390838        2.1125390173
 H          5.0412795186       -0.3431883086        1.9854870598
 C          0.6468374197        0.2681578407        0.7192314490
 C          0.2136818956       -0.9667600138        1.4527703016
 H          1.0177452864       -1.6962897005        1.3780013733
 H          0.0707766904       -0.7319244144        2.5085843453
 C         -0.1969746064        1.3170426364        0.6153463734
 C         -0.0919339848        2.2311578131       -0.5518794073
 O         -1.1585330040        2.1839886764       -1.3878010795
 C         -1.5982094948        1.1858009776        1.1683976514
 C         -1.7808594619       -0.8706365811       -0.2225210137
 C         -1.1138801716       -1.6288482449        0.9020378435
 C         -1.9737906035       -1.6116914499       -1.5072400073
 O          0.8558163883        2.9065922460       -0.8458774445
 C         -0.8370181597       -3.0663187289        0.4603751972
 C         -2.6849414694       -2.9504825715       -1.2800611563
 H         -0.9895508231       -1.7921055174       -1.9491113012
 H         -2.5422906047       -1.0082658198       -2.2148748465
 C         -2.1154924798       -3.7109105286       -0.0701689869
 H         -0.4670565479       -3.6447742693        1.3097742852
 H         -0.0652482713       -3.0762830112       -0.3104687326
 H         -2.5920967356       -3.5524168890       -2.1852523598
 H         -3.7479232761       -2.7603203356       -1.1239804565
 H         -2.8512770803       -3.7232817559        0.7366605393
 H         -1.9121334759       -4.7482213620       -0.3395625520
 C         -2.3854848996        2.5023689661        1.1981710950
 C         -2.0723148613        0.4160329995       -0.0365708709
 H         -1.6253787417        0.6575507093        2.1171219264
 C         -2.3799285392        1.5357140774       -0.9915566424
 C         -3.1680401478        2.5193433055       -0.1245908872
 H         -4.1842757028        2.1489865424        0.0116706814
 H         -3.2072091533        3.5072010565       -0.5795795936
 H         -1.7061563466        3.3531216816        1.2624639587
 H         -3.0547041839        2.5398588312        2.0567730012
 H         -2.8764720653        1.2598460936       -1.9225348295
 H         -1.8180348008       -1.6662716069        1.7413600510
