  48
        -65.78061745
 Si         3.2869316827       -0.6647831545        0.1696603394
 C          3.2353124529       -2.5692452727       -0.0131059595
 H          4.2217329729       -2.9592290220       -0.2426984615
 H          2.5742689761       -2.8692053645       -0.8220338592
 H          2.8982081960       -3.0698591960        0.8912770555
 C          4.2331833949        0.1409080172       -1.2595323606
 H          5.3057112459        0.0341485672       -1.1357863589
 H          4.0007817807        1.1996979347       -1.3151321850
 H          3.9665167480       -0.3013798362       -2.2143972223
 C          3.9839187839       -0.2147136086        1.8864949590
 O          1.7895705501       -0.0156540892       -0.0158515638
 H          3.9899315452        0.8629885353        2.0220749838
 H          5.0018168214       -0.5680663169        2.0141073398
 H          3.3865014496       -0.6406967330        2.6889171509
 C          0.6664233333        0.1447776407        0.6916054324
 C          0.0986188891       -1.0415193148        1.4139481134
 H          0.8093925133       -1.8597036670        1.3120753341
 H          0.0018294532       -0.8106084793        2.4758711191
 C         -0.0462268625        1.2878109068        0.6078432158
 C          0.1582579958        2.1961716991       -0.5506085610
 O         -0.9121068283        2.2846517417       -1.3776286102
 C         -1.4486260538        1.3181833119        1.1718872127
 C         -1.8886977281       -0.6877314230       -0.2347220486
 C         -1.3072561192       -1.5306837872        0.8768892509
 C         -2.1898317844       -1.3911999068       -1.5196104692
 O          1.1775762774        2.7578860959       -0.8450138639
 C         -1.2133274814       -2.9877104844        0.4227763759
 C         -3.0644570618       -2.6273673590       -1.2824435041
 H         -1.2435235224       -1.6952398427       -1.9759767644
 H         -2.6865371231       -0.7170773563       -2.2174268966
 C         -2.5663933938       -3.4700559752       -0.0953672075
 H         -0.9056060442       -3.6134200012        1.2634608602
 H         -0.4577609549       -3.0849201193       -0.3581359753
 H         -3.0778017499       -3.2260063972       -2.1944457497
 H         -4.0880341891       -2.2996827937       -1.0937792813
 H         -3.2859514759       -3.4130690931        0.7240318385
 H         -2.4875675095       -4.5188084843       -0.3849845610
 C         -2.0743673110        2.7182269228        1.2211069468
 C         -2.0206330023        0.6229548942       -0.0359563631
 H         -1.5304814514        0.7864566175        2.1155781788
 C         -2.1991864674        1.7810793475       -0.9778103373
 C         -2.8588907209        2.8419577712       -0.0949175690
 H         -3.9108557896        2.5931253819        0.0462143929
 H         -2.7839603516        3.8322904662       -0.5399245674
 H         -1.2988593445        3.4820934394        1.2881830578
 H         -2.7284312327        2.8252178328        2.0855149062
 H         -2.7308629203        1.5758320280       -1.9076017361
 H         -2.0007349807       -1.4876575377        1.7247716190
