  48
        -65.78060568
 Si         3.0143710915        1.0964343757        0.1748889897
 C          3.7458353225        1.0580401157        1.9374707687
 H          3.3266565567        1.8566715298        2.5428911723
 H          4.8227420124        1.1899213862        1.9229000588
 H          3.5402739339        0.1205164526        2.4480614622
 C          3.7061263565       -0.3803161963       -0.8268667849
 H          3.7446007745       -1.3037099242       -0.2537692883
 H          4.7175670376       -0.1741306356       -1.1622866781
 H          3.1050195606       -0.5650437931       -1.7136233921
 C          3.3334411205        2.7344694790       -0.7194930527
 O          1.3747812122        1.0626275359        0.2286923653
 H          3.1265046392        2.6512882901       -1.7817007927
 H          4.3643541774        3.0537368198       -0.6081562898
 H          2.6906156846        3.5156702103       -0.3271590487
 C          0.3737848656        0.4029978345        0.8215995355
 C          0.6300285788       -1.0004728201        1.2926784634
 H          1.6287297319       -1.2641965506        0.9485221257
 H          0.6314226300       -1.0316528281        2.3839890081
 C         -0.8645168329        0.9428073667        0.8342156453
 C         -1.1968996277        1.9724965384       -0.1882545028
 O         -2.0851517633        1.5434279598       -1.1175928550
 C         -2.0521409300        0.1126387744        1.2712386422
 C         -1.2469182999       -1.6069315484       -0.3504957303
 C         -0.3858069780       -2.0996392909        0.7864409943
 C         -0.9757588055       -2.0143796404       -1.7711096582
 O         -0.6958447147        3.0560910811       -0.3054268321
 C          0.3569369051       -3.4047617257        0.4788575425
 C         -0.2950426699       -3.3716369277       -1.9067994307
 H         -0.3187929230       -1.2501745889       -2.2043272193
 H         -1.9057220429       -1.9997955101       -2.3431305663
 C          0.8851998434       -3.4523389589       -0.9480414784
 H         -0.3349933944       -4.2398352796        0.6147735778
 H          1.1693329463       -3.5363300342        1.1966841854
 H          0.0364055508       -3.5077452915       -2.9378964651
 H         -1.0043593736       -4.1693762899       -1.6749246173
 H          1.4396150438       -4.3795078850       -1.1051184013
 H          1.5624072649       -2.6161265698       -1.1298919995
 C         -3.3610380158        0.9060232202        1.3814614720
 C         -2.0940984565       -0.6209999280       -0.0440220603
 H         -1.8386355994       -0.4703586874        2.1624615809
 C         -2.8619903651        0.3537747472       -0.8933527481
 C         -4.0360064031        0.7365737384        0.0109419628
 H         -4.7627258909       -0.0758549002        0.0257439766
 H         -4.5247065169        1.6454207073       -0.3348007611
 H         -3.1565379344        1.9566122493        1.5909141872
 H         -3.9873790785        0.5180914430        2.1837300439
 H         -3.1512401233        0.0054387074       -1.8854918501
 H         -1.0561070976       -2.3090753378        1.6263561698
