  48
        -65.78452257
 Si         2.1801108428       -2.1801935522       -0.5801064202
 C          1.9811073713       -1.4574625873       -2.3304332305
 H          0.9324464421       -1.3226461434       -2.5851007084
 H          2.4187538347       -2.1119823837       -3.0777550771
 H          2.4658090756       -0.4907518706       -2.4116899626
 C          3.9114043867       -1.9579910568        0.1703801011
 H          4.1941082265       -0.9119553413        0.1933254113
 H          4.6568102239       -2.4930975005       -0.4091345648
 H          3.9484653634       -2.3393392646        1.1874904800
 C          1.7436383672       -4.0370516490       -0.6285863095
 O          0.9871469308       -1.6784278451        0.4480755974
 H          1.7383175592       -4.4716024222        0.3658577894
 H          2.4707095693       -4.5830298739       -1.2196440768
 H          0.7668988475       -4.2147181353       -1.0679183881
 C          0.3882046869       -0.6405083126        1.0212819427
 C         -0.9050840924       -1.0130146424        1.7009037052
 H         -1.0054954529       -2.0949149325        1.6120043769
 H         -0.8458579552       -0.7712322628        2.7626371105
 C          0.7446475223        0.6603744354        0.9428169797
 C          1.5725111713        1.1721790726       -0.1675615367
 O          0.9396882761        2.0236895839       -1.0060458440
 C         -0.2227052752        1.6964681681        1.4820479276
 C         -1.9364564071        0.6684724921        0.0021739619
 C         -2.1993586487       -0.3390355789        1.0978784059
 C         -2.6085151196        0.4212610388       -1.3108652389
 O          2.6998482807        0.8360890800       -0.4283856570
 C         -3.1600469435       -1.4134175927        0.5872172106
 C         -4.1144974885        0.2048698674       -1.1288308292
 H         -2.1650652066       -0.4702246858       -1.7636935410
 H         -2.4355975202        1.2546546587       -1.9921378641
 C         -4.4243707586       -0.7721399082        0.0190400666
 H         -3.4336447210       -2.0786049001        1.4088907639
 H         -2.6681501653       -2.0158146479       -0.1777861909
 H         -4.5303086948       -0.1660511493       -2.0667968252
 H         -4.5822959402        1.1693889760       -0.9249787560
 H         -4.9308724940       -0.2405236178        0.8272871773
 H         -5.0997937157       -1.5562253986       -0.3258726707
 C          0.3635552499        3.1121841580        1.5755665286
 C         -1.0798590127        1.6585084907        0.2448877722
 H         -0.6991328345        1.3817574877        2.4053551349
 C         -0.3305495676        2.6013137381       -0.6529195620
 C         -0.0512017513        3.7943770729        0.2621325291
 H         -0.9640918495        4.3765051247        0.3887166941
 H          0.7273190983        4.4365096838       -0.1454268024
 H          1.4494217879        3.0725123108        1.6703183221
 H         -0.0301442188        3.6432553522        2.4411049774
 H         -0.8055782552        2.8586249734       -1.6000888383
 H         -2.6943166600        0.1884413596        1.9218015624
