47
 energy: -63.136192266621 gnorm: 0.000741161071 xtb: 6.4.0 (d4b70c2)
C         5.03815908862736   -6.44643749251674   -0.60885778730098
C         4.70502917941077   -6.27194304128020    0.88779806240013
C         5.10775476748011   -4.89646096076257    1.45102500044362
H         5.22055216401384   -7.04040991518250    1.46849547940111
H         3.63572688534253   -6.41513741925398    1.03902668431296
C         4.46813990702918   -3.78291094318911    0.67630845696364
H         6.19283606268622   -4.79485288921742    1.39068713322674
H         4.82952333599369   -4.85309428862652    2.50591589677238
C         6.04832002419580   -7.57345530159028   -0.81580307340642
H         6.95964082976394   -7.37510161833231   -0.25602523057378
H         6.30851454505417   -7.66922673021969   -1.86789227730476
H         5.63666227525777   -8.52302029696127   -0.47867525478898
C         3.77695312652899   -6.71807903082080   -1.45554541515798
H         5.48355877300022   -5.51896716363847   -0.97616803158198
C         2.74814767530958   -5.64296574509940   -1.27001638018830
H         3.35945160191691   -7.68698535354611   -1.17536384834325
H         4.07691843976467   -6.76931928321241   -2.50494679755077
C         2.88420365531705   -4.41026980610055   -1.73008794451010
C         1.97526778294770   -3.26447786031900   -1.37934524655983
C         3.21342550310366   -3.35726937635588    0.77641984837959
C         2.67017660082725   -2.39543936217935   -0.28099964534646
C         2.24506348835505   -3.88282123531341    1.79607832567499
H         1.28258136118262   -4.11348024903273    1.34346270982446
H         2.08707495492248   -3.15134480630726    2.58916486600540
H         2.62948149724156   -4.78738930976312    2.25363948736859
O         3.78014193797349   -1.72007485492664   -0.83208494318745
C         1.67611412937614   -1.38625213856795    0.37143649632385
C         0.77404256811267   -0.62520625803761   -0.55010283049159
H         2.28901049629393   -0.66519706968041    0.91930493355194
H         1.03744396974026   -1.92873430657333    1.06455069993453
S        -0.75816666695444   -1.48631867884423   -0.85310812702110
C        -1.57142299953473   -0.33549615312608   -1.98673841648196
H        -0.97827985966724    0.57734585066812   -1.98263834298184
H        -2.57745044591327   -0.14972086792814   -1.62691267862604
H        -1.59601298878074   -0.77537258904807   -2.97928587357897
O         0.94830425642620    0.47911222663584   -0.98961419316888
C         1.72477835996506   -2.42883683880615   -2.59758004865236
C         2.45925889522035   -1.36132606802016   -2.86360013334565
C         3.52374925534889   -0.87454982845254   -1.93590950543405
H         5.08610804772317   -3.33132980726438   -0.08385840640409
H         2.29894957545348   -0.75447526004184   -3.74214274616557
H         4.48072801570867   -0.79876332949663   -2.46530614947299
H         3.25743593553496    0.13663219127601   -1.58829776929899
H         1.03273412796250   -3.65065498789592   -0.98125703608439
H         0.94843033352492   -2.76734493848971   -3.26847701333236
H         1.88597141043993   -5.89353328627407   -0.66627346272907
H         3.73969812076775   -4.14337352828065   -2.33505947151494
