12
-27.863403779012515
C        0.468425       0.981387      -2.746388
C        0.312017       0.420874      -1.356443
C        1.409197      -0.520884      -0.967632
O       -0.380591       1.595041      -3.325059
O        1.664834       3.064226      -0.793787
O        2.510538      -0.529474      -1.442468
H        1.720127       3.952793      -1.150751
H        2.521789       2.663424      -0.905163
H        1.438766       0.747934      -3.220327
H        1.127826      -1.228587      -0.164141
H       -0.675956      -0.025542      -1.234012
H        0.361618       1.278476      -0.672583
12
-27.897033599312635
C        0.467972       0.980306      -2.746244
C        0.311510       0.419759      -1.356417
C        1.409371      -0.520995      -0.967292
O       -0.380908       1.594464      -3.325057
O        1.663891       3.066982      -0.793805
O        2.510446      -0.529189      -1.442114
H        1.719074       3.955667      -1.151523
H        2.526482       2.663262      -0.906179
H        1.438031       0.747647      -3.220060
H        1.128504      -1.228493      -0.163531
H       -0.676515      -0.027497      -1.234185
H        0.360186       1.277421      -0.672742
