12
-26.88373241802401
C        0.541107       1.092140      -2.644015
C        0.304110       0.389326      -1.329351
C        1.409556      -0.544790      -0.947153
O       -0.244272       1.829686      -3.167994
O        1.588045       3.002775      -0.941364
O        2.523893      -0.510500      -1.388871
H        1.693531       3.888444      -1.296584
H        2.394885       2.514347      -1.144010
H        1.456268       0.765770      -3.170075
H        1.120042      -1.292262      -0.183923
H       -0.663351      -0.117483      -1.353383
H        0.235060       1.157039      -0.550175
12
-26.832928686268133
C        0.537474       1.093550      -2.644013
C        0.301495       0.388156      -1.330355
C        1.409634      -0.542740      -0.947973
O       -0.247185       1.833271      -3.165039
O        1.596311       2.995317      -0.942863
O        2.524963      -0.503311      -1.388381
H        1.703366       3.880220      -1.297637
H        2.386664       2.514539      -1.144843
H        1.455096       0.769894      -3.168904
H        1.122592      -1.290847      -0.184056
H       -0.663712      -0.121659      -1.355751
H        0.228872       1.155013      -0.550248
