6
	Energy:       0.1418576
O         -2.58745        0.74246       -0.50570
H         -2.19599        0.63783        0.39774
H         -3.13898       -0.06893       -0.63646
C         -4.19387        3.18582       -0.06297
N         -3.48288        3.67008        0.71256
H         -4.83628        2.73459       -0.77213
