12
	Energy:      12.2228930
O          1.45700       -0.03026       -1.09332
C          0.34911       -0.81515       -0.73568
H          1.67403        0.54924       -0.31740
C          0.71824       -1.78247        0.30661
N          1.00982       -2.54540        1.12990
N         -0.77183        0.01997       -0.30485
H          0.02926       -1.39343       -1.63031
H         -1.00326        0.69874       -1.06571
H         -0.51367        0.55991        0.55235
O         -2.51390       -1.63489        1.39701
H         -1.59451       -1.82523        1.70750
H         -2.78186       -0.83603        1.91597
