8
	Energy:      -0.4731855
N         12.80355        1.05499        3.19021
C         11.30654       -1.77028        1.74760
N         10.22391       -1.17144        1.41328
H         11.96953       -2.15588        0.98125
H         11.56714       -1.89156        2.79469
H          9.58777       -0.79897        2.13310
C         11.72515        1.45146        3.05238
H         10.73804        1.81139        2.92507
