7
	Energy:      -0.3015212
N         12.75336        2.19469        3.56916
C         11.63781        2.08749        3.27862
H         10.61957        1.98343        3.01049
O         11.55728       -0.65304        1.52098
C         12.53095       -0.92297        2.20387
H         13.50555       -1.02770        1.74089
H         12.42334       -1.04814        3.27588
