12
	Energy:      11.4186447
N          1.28917       -0.29995        0.09129
C         -0.01051        0.23658        0.48052
O         -0.16892        1.50681       -0.08784
H          1.32847       -0.39349       -0.94984
H          1.41177       -1.24845        0.51438
H         -0.04327        0.33542        1.59146
O         -1.03545       -0.60837        0.02506
H         -1.03525        1.85815        0.24600
H         -1.07991       -1.37040        0.65950
O         -0.02917       -3.02707       -1.67149
H          0.94296       -2.97099       -1.49190
H         -0.23907       -2.19327       -2.16281
