12
	Energy:      11.3014823
N          1.26421       -0.28802        0.08660
C          0.00173        0.29944        0.52523
O         -0.14931        1.55615       -0.07476
H          1.23982       -0.42604       -0.95004
H          1.38631       -1.22172        0.54174
H          0.02960        0.43176        1.63348
O         -1.07024       -0.52645        0.15085
H         -0.96628        1.95939        0.31967
H         -1.07374       -1.29146        0.78336
C         -0.24390       -3.10043       -1.79838
N         -1.37644       -2.89028       -1.91330
H          0.79135       -3.29159       -1.69283
