6
	Energy:       0.2824841
O         -3.25389        2.10330       -1.57596
H         -4.27509        2.40592        1.46025
H         -3.41106        2.45933       -2.46123
C         -3.96107        2.55265       -0.52148
N         -3.74097        2.07073        0.64551
H         -4.71616        3.32192       -0.66088
