9
	Energy:      -0.2176473
O         -3.73440        2.11463       -1.68011
H         -4.54884        2.53442        1.40427
H         -3.77524        2.56226       -2.53632
C         -4.23329        2.70198       -0.57558
N         -4.17095        2.09599        0.55200
H         -4.68744        3.68724       -0.64136
O         -1.18421        0.49741        0.26799
H         -0.37435        0.65540        0.81543
H         -1.16965        1.21886       -0.41009
