6
	Energy:       2.0309462
C          5.77716        5.96921       -0.02281
N          4.54240        5.61225       -0.05149
O          4.18530        4.34752       -0.17759
H          4.83251        3.63144       -0.26266
H          6.03082        7.01842        0.08053
H          6.57513        5.23639       -0.10030
