12
-7.981114809386781
C        1.191471       1.122748      -2.398616
C        0.476230       0.802018      -1.114570
C        1.570858       1.114844      -0.171500
O        0.289456       1.130896      -3.440870
O        1.904945       2.416627      -0.281115
O        2.026481       0.493078       0.744519
H        1.238182       2.990446      -0.695061
H        2.041994       0.415833      -2.451222
H        1.463116       2.140389      -2.754185
H        0.204622      -0.046299      -3.218776
H        0.196207      -0.250074      -1.001308
H       -0.400794       1.446700      -1.096651
12
-8.051034243015238
C        1.191379       1.122649      -2.398696
C        0.476151       0.802127      -1.114817
C        1.570790       1.114742      -0.171682
O        0.289414       1.130774      -3.441172
O        1.905085       2.416384      -0.281262
O        2.026236       0.492833       0.744370
H        1.238369       2.990317      -0.695039
H        2.041830       0.415703      -2.451224
H        1.463142       2.140247      -2.754154
H        0.204546      -0.046018      -3.219294
H        0.195984      -0.249903      -1.001667
H       -0.400847       1.446907      -1.096815
