12
-63.67282862398679
C        1.241482       0.955729      -2.521815
C        0.582736       0.825016      -1.135199
C        1.534902       1.302825      -0.055519
O        0.338436       0.692568      -3.562904
O        1.679731       2.636830       0.020067
O        2.141455       0.573648       0.671217
H        1.127692       3.111061      -0.616021
H        2.113635       0.289997      -2.573206
H        1.583203       1.981692      -2.691578
H        0.047135      -0.224311      -3.507861
H        0.336189      -0.220509      -0.942812
H       -0.337497       1.415054      -1.120159
12
-63.67293221325053
C        1.241480       0.955732      -2.521835
C        0.582733       0.825022      -1.135205
C        1.534892       1.302842      -0.055498
O        0.338487       0.692607      -3.562886
O        1.679720       2.636807       0.020090
O        2.141449       0.573676       0.671232
H        1.127693       3.111009      -0.616005
H        2.113583       0.290026      -2.573238
H        1.583185       1.981623      -2.691602
H        0.047188      -0.224303      -3.507857
H        0.336188      -0.220498      -0.942814
H       -0.337496       1.415057      -1.120173
