12
-0.8751782135877875
C        1.285614       1.119804      -1.249628
C       -0.225936       0.876667      -1.266549
C        2.051298      -0.185393      -1.275721
O        1.740189       1.868443      -2.353799
O        1.321196       3.225697      -2.200410
O        1.830409      -1.112885      -0.554027
H        1.728468       3.649708      -2.966890
H        1.556969       1.648076      -0.320815
H       -0.512283       0.406394      -2.204106
H        2.854034      -0.202049      -2.034426
H       -0.489676       0.222803      -0.441028
H       -0.751382       1.822426      -1.168412
12
-0.8752401801484666
C        1.285613       1.119802      -1.249613
C       -0.225931       0.876666      -1.266555
C        2.051311      -0.185386      -1.275698
O        1.740213       1.868462      -2.353793
O        1.321248       3.225713      -2.200382
O        1.830390      -1.112907      -0.554042
H        1.728397       3.649690      -2.966935
H        1.556955       1.648067      -0.320796
H       -0.512266       0.406391      -2.204127
H        2.854040      -0.202037      -2.034417
H       -0.489685       0.222794      -0.441031
H       -0.751384       1.822435      -1.168421
