12
-0.24753720127591805
C        1.260757       1.095821      -1.263861
C       -0.241380       0.785548      -1.260677
C        2.084075      -0.172343      -1.349603
O        1.660813       1.921655      -2.330271
O        1.301502       3.272659      -2.032441
O        1.876379      -1.150967      -0.694809
H        1.618576       3.743632      -2.813963
H        1.546354       1.576364      -0.313739
H       -0.580563       0.729776      -2.292301
H        2.912775      -0.113107      -2.077158
H       -0.423695      -0.157659      -0.756862
H       -0.795194       1.582062      -0.771483
12
-0.25034150346436945
C        1.260739       1.095676      -1.263721
C       -0.241344       0.785810      -1.260799
C        2.084083      -0.172630      -1.349512
O        1.661149       1.921562      -2.330216
O        1.301646       3.272533      -2.032621
O        1.876271      -1.151632      -0.694900
H        1.618297       3.743367      -2.814397
H        1.546009       1.576475      -0.313555
H       -0.580742       0.730113      -2.292563
H        2.912913      -0.113147      -2.076907
H       -0.423608      -0.157613      -0.757243
H       -0.794997       1.582063      -0.770946
